* NGSPICE file created from top_soc.ext - technology: sky130A

* Black-box entry subcircuit for sky130_fd_sc_hd__fill_2 abstract view
.subckt sky130_fd_sc_hd__fill_2 VGND VNB VPB VPWR
.ends

* Black-box entry subcircuit for sky130_fd_sc_hd__fill_1 abstract view
.subckt sky130_fd_sc_hd__fill_1 VGND VNB VPB VPWR
.ends

* Black-box entry subcircuit for sky130_fd_sc_hd__fill_4 abstract view
.subckt sky130_fd_sc_hd__fill_4 VGND VNB VPB VPWR
.ends

* Black-box entry subcircuit for sky130_fd_sc_hd__diode_2 abstract view
.subckt sky130_fd_sc_hd__diode_2 DIODE VGND VNB VPB VPWR
.ends

* Black-box entry subcircuit for sky130_ef_sc_hd__decap_40_12 abstract view
.subckt sky130_ef_sc_hd__decap_40_12 VPWR VGND VPB VNB
.ends

* Black-box entry subcircuit for sky130_fd_sc_hd__conb_1 abstract view
.subckt sky130_fd_sc_hd__conb_1 VGND VNB VPB VPWR HI LO
.ends

* Black-box entry subcircuit for sky130_fd_sc_hd__fill_8 abstract view
.subckt sky130_fd_sc_hd__fill_8 VGND VNB VPB VPWR
.ends

* Black-box entry subcircuit for sky130_fd_sc_hd__inv_2 abstract view
.subckt sky130_fd_sc_hd__inv_2 A VGND VNB VPB VPWR Y
.ends

* Black-box entry subcircuit for sky130_fd_sc_hd__a41o_1 abstract view
.subckt sky130_fd_sc_hd__a41o_1 A1 A2 A3 A4 B1 VGND VNB VPB VPWR X
.ends

* Black-box entry subcircuit for sky130_fd_sc_hd__nand2b_2 abstract view
.subckt sky130_fd_sc_hd__nand2b_2 A_N B VGND VNB VPB VPWR Y
.ends

* Black-box entry subcircuit for sky130_fd_sc_hd__mux2_1 abstract view
.subckt sky130_fd_sc_hd__mux2_1 A0 A1 S VGND VNB VPB VPWR X
.ends

* Black-box entry subcircuit for sky130_fd_sc_hd__tapvpwrvgnd_1 abstract view
.subckt sky130_fd_sc_hd__tapvpwrvgnd_1 VGND VPWR
.ends

* Black-box entry subcircuit for sky130_fd_sc_hd__o211a_1 abstract view
.subckt sky130_fd_sc_hd__o211a_1 A1 A2 B1 C1 VGND VNB VPB VPWR X
.ends

* Black-box entry subcircuit for sky130_fd_sc_hd__or4_1 abstract view
.subckt sky130_fd_sc_hd__or4_1 A B C D VGND VNB VPB VPWR X
.ends

* Black-box entry subcircuit for sky130_fd_sc_hd__a221o_1 abstract view
.subckt sky130_fd_sc_hd__a221o_1 A1 A2 B1 B2 C1 VGND VNB VPB VPWR X
.ends

* Black-box entry subcircuit for sky130_fd_sc_hd__dlygate4sd3_1 abstract view
.subckt sky130_fd_sc_hd__dlygate4sd3_1 A VGND VNB VPB VPWR X
.ends

* Black-box entry subcircuit for sky130_fd_sc_hd__clkbuf_16 abstract view
.subckt sky130_fd_sc_hd__clkbuf_16 A VGND VNB VPB VPWR X
.ends

* Black-box entry subcircuit for sky130_fd_sc_hd__dfstp_1 abstract view
.subckt sky130_fd_sc_hd__dfstp_1 CLK D SET_B VGND VNB VPB VPWR Q
.ends

* Black-box entry subcircuit for sky130_fd_sc_hd__buf_2 abstract view
.subckt sky130_fd_sc_hd__buf_2 A VGND VNB VPB VPWR X
.ends

* Black-box entry subcircuit for sky130_fd_sc_hd__and2b_1 abstract view
.subckt sky130_fd_sc_hd__and2b_1 A_N B VGND VNB VPB VPWR X
.ends

* Black-box entry subcircuit for sky130_fd_sc_hd__xnor2_1 abstract view
.subckt sky130_fd_sc_hd__xnor2_1 A B VGND VNB VPB VPWR Y
.ends

* Black-box entry subcircuit for sky130_fd_sc_hd__decap_3 abstract view
.subckt sky130_fd_sc_hd__decap_3 VGND VNB VPB VPWR
.ends

* Black-box entry subcircuit for sky130_fd_sc_hd__o22a_1 abstract view
.subckt sky130_fd_sc_hd__o22a_1 A1 A2 B1 B2 VGND VNB VPB VPWR X
.ends

* Black-box entry subcircuit for sky130_fd_sc_hd__dfrtp_1 abstract view
.subckt sky130_fd_sc_hd__dfrtp_1 CLK D RESET_B VGND VNB VPB VPWR Q
.ends

* Black-box entry subcircuit for sky130_fd_sc_hd__and3_1 abstract view
.subckt sky130_fd_sc_hd__and3_1 A B C VGND VNB VPB VPWR X
.ends

* Black-box entry subcircuit for sky130_fd_sc_hd__xnor2_2 abstract view
.subckt sky130_fd_sc_hd__xnor2_2 A B VGND VNB VPB VPWR Y
.ends

* Black-box entry subcircuit for sky130_fd_sc_hd__dfrtp_2 abstract view
.subckt sky130_fd_sc_hd__dfrtp_2 CLK D RESET_B VGND VNB VPB VPWR Q
.ends

* Black-box entry subcircuit for sky130_fd_sc_hd__a22o_1 abstract view
.subckt sky130_fd_sc_hd__a22o_1 A1 A2 B1 B2 VGND VNB VPB VPWR X
.ends

* Black-box entry subcircuit for sky130_fd_sc_hd__nand2_4 abstract view
.subckt sky130_fd_sc_hd__nand2_4 A B VGND VNB VPB VPWR Y
.ends

* Black-box entry subcircuit for sky130_fd_sc_hd__o21a_1 abstract view
.subckt sky130_fd_sc_hd__o21a_1 A1 A2 B1 VGND VNB VPB VPWR X
.ends

* Black-box entry subcircuit for sky130_fd_sc_hd__or4b_2 abstract view
.subckt sky130_fd_sc_hd__or4b_2 A B C D_N VGND VNB VPB VPWR X
.ends

* Black-box entry subcircuit for sky130_fd_sc_hd__and4b_4 abstract view
.subckt sky130_fd_sc_hd__and4b_4 A_N B C D VGND VNB VPB VPWR X
.ends

* Black-box entry subcircuit for sky130_fd_sc_hd__nand3_1 abstract view
.subckt sky130_fd_sc_hd__nand3_1 A B C VGND VNB VPB VPWR Y
.ends

* Black-box entry subcircuit for sky130_fd_sc_hd__clkinv_4 abstract view
.subckt sky130_fd_sc_hd__clkinv_4 A VGND VNB VPB VPWR Y
.ends

* Black-box entry subcircuit for sky130_fd_sc_hd__a21oi_1 abstract view
.subckt sky130_fd_sc_hd__a21oi_1 A1 A2 B1 VGND VNB VPB VPWR Y
.ends

* Black-box entry subcircuit for sky130_fd_sc_hd__and4b_1 abstract view
.subckt sky130_fd_sc_hd__and4b_1 A_N B C D VGND VNB VPB VPWR X
.ends

* Black-box entry subcircuit for sky130_fd_sc_hd__nand2_8 abstract view
.subckt sky130_fd_sc_hd__nand2_8 A B VGND VNB VPB VPWR Y
.ends

* Black-box entry subcircuit for sky130_fd_sc_hd__dfrtp_4 abstract view
.subckt sky130_fd_sc_hd__dfrtp_4 CLK D RESET_B VGND VNB VPB VPWR Q
.ends

* Black-box entry subcircuit for sky130_fd_sc_hd__inv_6 abstract view
.subckt sky130_fd_sc_hd__inv_6 A VGND VNB VPB VPWR Y
.ends

* Black-box entry subcircuit for sky130_fd_sc_hd__and3_4 abstract view
.subckt sky130_fd_sc_hd__and3_4 A B C VGND VNB VPB VPWR X
.ends

* Black-box entry subcircuit for sky130_fd_sc_hd__buf_8 abstract view
.subckt sky130_fd_sc_hd__buf_8 A VGND VNB VPB VPWR X
.ends

* Black-box entry subcircuit for sky130_fd_sc_hd__nor4_2 abstract view
.subckt sky130_fd_sc_hd__nor4_2 A B C D VGND VNB VPB VPWR Y
.ends

* Black-box entry subcircuit for sky130_fd_sc_hd__nor2_1 abstract view
.subckt sky130_fd_sc_hd__nor2_1 A B VGND VNB VPB VPWR Y
.ends

* Black-box entry subcircuit for sky130_fd_sc_hd__buf_4 abstract view
.subckt sky130_fd_sc_hd__buf_4 A VGND VNB VPB VPWR X
.ends

* Black-box entry subcircuit for sky130_fd_sc_hd__clkinv_8 abstract view
.subckt sky130_fd_sc_hd__clkinv_8 A VGND VNB VPB VPWR Y
.ends

* Black-box entry subcircuit for sky130_fd_sc_hd__bufinv_16 abstract view
.subckt sky130_fd_sc_hd__bufinv_16 A VGND VNB VPB VPWR Y
.ends

* Black-box entry subcircuit for sky130_fd_sc_hd__and2_4 abstract view
.subckt sky130_fd_sc_hd__and2_4 A B VGND VNB VPB VPWR X
.ends

* Black-box entry subcircuit for sky130_fd_sc_hd__o21ai_2 abstract view
.subckt sky130_fd_sc_hd__o21ai_2 A1 A2 B1 VGND VNB VPB VPWR Y
.ends

* Black-box entry subcircuit for sky130_fd_sc_hd__and4_4 abstract view
.subckt sky130_fd_sc_hd__and4_4 A B C D VGND VNB VPB VPWR X
.ends

* Black-box entry subcircuit for sky130_fd_sc_hd__buf_6 abstract view
.subckt sky130_fd_sc_hd__buf_6 A VGND VNB VPB VPWR X
.ends

* Black-box entry subcircuit for sky130_fd_sc_hd__a21boi_1 abstract view
.subckt sky130_fd_sc_hd__a21boi_1 A1 A2 B1_N VGND VNB VPB VPWR Y
.ends

* Black-box entry subcircuit for sky130_fd_sc_hd__or2_4 abstract view
.subckt sky130_fd_sc_hd__or2_4 A B VGND VNB VPB VPWR X
.ends

* Black-box entry subcircuit for sky130_fd_sc_hd__and3b_1 abstract view
.subckt sky130_fd_sc_hd__and3b_1 A_N B C VGND VNB VPB VPWR X
.ends

* Black-box entry subcircuit for sky130_fd_sc_hd__nor2_4 abstract view
.subckt sky130_fd_sc_hd__nor2_4 A B VGND VNB VPB VPWR Y
.ends

* Black-box entry subcircuit for sky130_fd_sc_hd__a31o_1 abstract view
.subckt sky130_fd_sc_hd__a31o_1 A1 A2 A3 B1 VGND VNB VPB VPWR X
.ends

* Black-box entry subcircuit for sky130_fd_sc_hd__o31a_1 abstract view
.subckt sky130_fd_sc_hd__o31a_1 A1 A2 A3 B1 VGND VNB VPB VPWR X
.ends

* Black-box entry subcircuit for sky130_fd_sc_hd__nand2_1 abstract view
.subckt sky130_fd_sc_hd__nand2_1 A B VGND VNB VPB VPWR Y
.ends

* Black-box entry subcircuit for sky130_fd_sc_hd__or4bb_1 abstract view
.subckt sky130_fd_sc_hd__or4bb_1 A B C_N D_N VGND VNB VPB VPWR X
.ends

* Black-box entry subcircuit for sky130_fd_sc_hd__buf_1 abstract view
.subckt sky130_fd_sc_hd__buf_1 A VGND VNB VPB VPWR X
.ends

* Black-box entry subcircuit for sky130_fd_sc_hd__clkbuf_1 abstract view
.subckt sky130_fd_sc_hd__clkbuf_1 A VGND VNB VPB VPWR X
.ends

* Black-box entry subcircuit for sky130_fd_sc_hd__and4bb_1 abstract view
.subckt sky130_fd_sc_hd__and4bb_1 A_N B_N C D VGND VNB VPB VPWR X
.ends

* Black-box entry subcircuit for sky130_fd_sc_hd__o2bb2a_1 abstract view
.subckt sky130_fd_sc_hd__o2bb2a_1 A1_N A2_N B1 B2 VGND VNB VPB VPWR X
.ends

* Black-box entry subcircuit for sky130_fd_sc_hd__a21oi_2 abstract view
.subckt sky130_fd_sc_hd__a21oi_2 A1 A2 B1 VGND VNB VPB VPWR Y
.ends

* Black-box entry subcircuit for sky130_fd_sc_hd__nand2b_1 abstract view
.subckt sky130_fd_sc_hd__nand2b_1 A_N B VGND VNB VPB VPWR Y
.ends

* Black-box entry subcircuit for sky130_fd_sc_hd__a211o_1 abstract view
.subckt sky130_fd_sc_hd__a211o_1 A1 A2 B1 C1 VGND VNB VPB VPWR X
.ends

* Black-box entry subcircuit for sky130_fd_sc_hd__a21o_1 abstract view
.subckt sky130_fd_sc_hd__a21o_1 A1 A2 B1 VGND VNB VPB VPWR X
.ends

* Black-box entry subcircuit for sky130_fd_sc_hd__and4_1 abstract view
.subckt sky130_fd_sc_hd__and4_1 A B C D VGND VNB VPB VPWR X
.ends

* Black-box entry subcircuit for sky130_fd_sc_hd__and2_1 abstract view
.subckt sky130_fd_sc_hd__and2_1 A B VGND VNB VPB VPWR X
.ends

* Black-box entry subcircuit for sky130_fd_sc_hd__dlymetal6s2s_1 abstract view
.subckt sky130_fd_sc_hd__dlymetal6s2s_1 A VGND VNB VPB VPWR X
.ends

* Black-box entry subcircuit for sky130_fd_sc_hd__a21bo_1 abstract view
.subckt sky130_fd_sc_hd__a21bo_1 A1 A2 B1_N VGND VNB VPB VPWR X
.ends

* Black-box entry subcircuit for sky130_fd_sc_hd__or3_1 abstract view
.subckt sky130_fd_sc_hd__or3_1 A B C VGND VNB VPB VPWR X
.ends

* Black-box entry subcircuit for sky130_fd_sc_hd__nor2_2 abstract view
.subckt sky130_fd_sc_hd__nor2_2 A B VGND VNB VPB VPWR Y
.ends

* Black-box entry subcircuit for sky130_fd_sc_hd__a41oi_1 abstract view
.subckt sky130_fd_sc_hd__a41oi_1 A1 A2 A3 A4 B1 VGND VNB VPB VPWR Y
.ends

* Black-box entry subcircuit for sky130_fd_sc_hd__clkbuf_2 abstract view
.subckt sky130_fd_sc_hd__clkbuf_2 A VGND VNB VPB VPWR X
.ends

* Black-box entry subcircuit for sky130_fd_sc_hd__or2_1 abstract view
.subckt sky130_fd_sc_hd__or2_1 A B VGND VNB VPB VPWR X
.ends

* Black-box entry subcircuit for sky130_fd_sc_hd__and3_2 abstract view
.subckt sky130_fd_sc_hd__and3_2 A B C VGND VNB VPB VPWR X
.ends

* Black-box entry subcircuit for sky130_fd_sc_hd__clkbuf_4 abstract view
.subckt sky130_fd_sc_hd__clkbuf_4 A VGND VNB VPB VPWR X
.ends

* Black-box entry subcircuit for sky130_fd_sc_hd__nand2_2 abstract view
.subckt sky130_fd_sc_hd__nand2_2 A B VGND VNB VPB VPWR Y
.ends

* Black-box entry subcircuit for sky130_fd_sc_hd__xor2_1 abstract view
.subckt sky130_fd_sc_hd__xor2_1 A B VGND VNB VPB VPWR X
.ends

* Black-box entry subcircuit for sky130_fd_sc_hd__nor3_2 abstract view
.subckt sky130_fd_sc_hd__nor3_2 A B C VGND VNB VPB VPWR Y
.ends

* Black-box entry subcircuit for sky130_fd_sc_hd__xor2_2 abstract view
.subckt sky130_fd_sc_hd__xor2_2 A B VGND VNB VPB VPWR X
.ends

* Black-box entry subcircuit for sky130_fd_sc_hd__nor3_1 abstract view
.subckt sky130_fd_sc_hd__nor3_1 A B C VGND VNB VPB VPWR Y
.ends

* Black-box entry subcircuit for sky130_fd_sc_hd__o21ba_1 abstract view
.subckt sky130_fd_sc_hd__o21ba_1 A1 A2 B1_N VGND VNB VPB VPWR X
.ends

.subckt top_soc adc_data_in[0] adc_data_in[10] adc_data_in[11] adc_data_in[1] adc_data_in[2]
+ adc_data_in[3] adc_data_in[4] adc_data_in[5] adc_data_in[6] adc_data_in[7] adc_data_in[8]
+ adc_data_in[9] io_oeb[0] io_oeb[10] io_oeb[11] io_oeb[12] io_oeb[13] io_oeb[14]
+ io_oeb[15] io_oeb[16] io_oeb[17] io_oeb[18] io_oeb[19] io_oeb[1] io_oeb[20] io_oeb[21]
+ io_oeb[22] io_oeb[23] io_oeb[24] io_oeb[25] io_oeb[26] io_oeb[27] io_oeb[28] io_oeb[29]
+ io_oeb[2] io_oeb[30] io_oeb[31] io_oeb[32] io_oeb[33] io_oeb[34] io_oeb[35] io_oeb[36]
+ io_oeb[37] io_oeb[3] io_oeb[4] io_oeb[5] io_oeb[6] io_oeb[7] io_oeb[8] io_oeb[9]
+ io_out[0] io_out[10] io_out[11] io_out[12] io_out[13] io_out[14] io_out[15] io_out[16]
+ io_out[17] io_out[18] io_out[19] io_out[1] io_out[20] io_out[21] io_out[22] io_out[23]
+ io_out[24] io_out[25] io_out[26] io_out[27] io_out[28] io_out[29] io_out[2] io_out[30]
+ io_out[31] io_out[32] io_out[33] io_out[34] io_out[35] io_out[36] io_out[37] io_out[3]
+ io_out[4] io_out[5] io_out[6] io_out[7] io_out[8] io_out[9] la_data_out[0] la_data_out[100]
+ la_data_out[101] la_data_out[102] la_data_out[103] la_data_out[104] la_data_out[105]
+ la_data_out[106] la_data_out[107] la_data_out[108] la_data_out[109] la_data_out[10]
+ la_data_out[110] la_data_out[111] la_data_out[112] la_data_out[113] la_data_out[114]
+ la_data_out[115] la_data_out[116] la_data_out[117] la_data_out[118] la_data_out[119]
+ la_data_out[11] la_data_out[120] la_data_out[121] la_data_out[122] la_data_out[123]
+ la_data_out[124] la_data_out[125] la_data_out[126] la_data_out[127] la_data_out[12]
+ la_data_out[13] la_data_out[14] la_data_out[15] la_data_out[16] la_data_out[17]
+ la_data_out[18] la_data_out[19] la_data_out[1] la_data_out[20] la_data_out[21] la_data_out[22]
+ la_data_out[23] la_data_out[24] la_data_out[25] la_data_out[26] la_data_out[27]
+ la_data_out[28] la_data_out[29] la_data_out[2] la_data_out[30] la_data_out[31] la_data_out[32]
+ la_data_out[33] la_data_out[34] la_data_out[35] la_data_out[36] la_data_out[37]
+ la_data_out[38] la_data_out[39] la_data_out[3] la_data_out[40] la_data_out[41] la_data_out[42]
+ la_data_out[43] la_data_out[44] la_data_out[45] la_data_out[46] la_data_out[47]
+ la_data_out[48] la_data_out[49] la_data_out[4] la_data_out[50] la_data_out[51] la_data_out[52]
+ la_data_out[53] la_data_out[54] la_data_out[55] la_data_out[56] la_data_out[57]
+ la_data_out[58] la_data_out[59] la_data_out[5] la_data_out[60] la_data_out[61] la_data_out[62]
+ la_data_out[63] la_data_out[64] la_data_out[65] la_data_out[66] la_data_out[67]
+ la_data_out[68] la_data_out[69] la_data_out[6] la_data_out[70] la_data_out[71] la_data_out[72]
+ la_data_out[73] la_data_out[74] la_data_out[75] la_data_out[76] la_data_out[77]
+ la_data_out[78] la_data_out[79] la_data_out[7] la_data_out[80] la_data_out[81] la_data_out[82]
+ la_data_out[83] la_data_out[84] la_data_out[85] la_data_out[86] la_data_out[87]
+ la_data_out[88] la_data_out[89] la_data_out[8] la_data_out[90] la_data_out[91] la_data_out[92]
+ la_data_out[93] la_data_out[94] la_data_out[95] la_data_out[96] la_data_out[97]
+ la_data_out[98] la_data_out[99] la_data_out[9] user_irq[0] user_irq[1] user_irq[2]
+ vccd1 vssd1 wb_clk_i wb_rst_i wbs_ack_o wbs_adr_i[0] wbs_adr_i[10] wbs_adr_i[11]
+ wbs_adr_i[12] wbs_adr_i[13] wbs_adr_i[14] wbs_adr_i[15] wbs_adr_i[16] wbs_adr_i[17]
+ wbs_adr_i[18] wbs_adr_i[19] wbs_adr_i[1] wbs_adr_i[20] wbs_adr_i[21] wbs_adr_i[22]
+ wbs_adr_i[23] wbs_adr_i[24] wbs_adr_i[25] wbs_adr_i[26] wbs_adr_i[27] wbs_adr_i[28]
+ wbs_adr_i[29] wbs_adr_i[2] wbs_adr_i[30] wbs_adr_i[31] wbs_adr_i[3] wbs_adr_i[4]
+ wbs_adr_i[5] wbs_adr_i[6] wbs_adr_i[7] wbs_adr_i[8] wbs_adr_i[9] wbs_cyc_i wbs_dat_i[0]
+ wbs_dat_i[10] wbs_dat_i[11] wbs_dat_i[12] wbs_dat_i[13] wbs_dat_i[14] wbs_dat_i[15]
+ wbs_dat_i[16] wbs_dat_i[17] wbs_dat_i[18] wbs_dat_i[19] wbs_dat_i[1] wbs_dat_i[20]
+ wbs_dat_i[21] wbs_dat_i[22] wbs_dat_i[23] wbs_dat_i[24] wbs_dat_i[25] wbs_dat_i[26]
+ wbs_dat_i[27] wbs_dat_i[28] wbs_dat_i[29] wbs_dat_i[2] wbs_dat_i[30] wbs_dat_i[31]
+ wbs_dat_i[3] wbs_dat_i[4] wbs_dat_i[5] wbs_dat_i[6] wbs_dat_i[7] wbs_dat_i[8] wbs_dat_i[9]
+ wbs_dat_o[0] wbs_dat_o[10] wbs_dat_o[11] wbs_dat_o[12] wbs_dat_o[13] wbs_dat_o[14]
+ wbs_dat_o[15] wbs_dat_o[16] wbs_dat_o[17] wbs_dat_o[18] wbs_dat_o[19] wbs_dat_o[1]
+ wbs_dat_o[20] wbs_dat_o[21] wbs_dat_o[22] wbs_dat_o[23] wbs_dat_o[24] wbs_dat_o[25]
+ wbs_dat_o[26] wbs_dat_o[27] wbs_dat_o[28] wbs_dat_o[29] wbs_dat_o[2] wbs_dat_o[30]
+ wbs_dat_o[31] wbs_dat_o[3] wbs_dat_o[4] wbs_dat_o[5] wbs_dat_o[6] wbs_dat_o[7] wbs_dat_o[8]
+ wbs_dat_o[9] wbs_sel_i[0] wbs_sel_i[1] wbs_sel_i[2] wbs_sel_i[3] wbs_stb_i wbs_we_i
XFILLER_100_138 vssd1 vssd1 vccd1 vccd1 sky130_fd_sc_hd__fill_2
XFILLER_79_391 vssd1 vssd1 vccd1 vccd1 sky130_fd_sc_hd__fill_1
XFILLER_67_553 vssd1 vssd1 vccd1 vccd1 sky130_fd_sc_hd__fill_4
XANTENNA__283__A0 _449_/A1 vssd1 vssd1 vccd1 vccd1 sky130_fd_sc_hd__diode_2
XFILLER_82_501 vccd1 vssd1 vccd1 vssd1 sky130_ef_sc_hd__decap_40_12
XFILLER_27_417 vccd1 vssd1 vccd1 vssd1 sky130_ef_sc_hd__decap_40_12
XFILLER_39_277 vssd1 vssd1 vccd1 vccd1 sky130_fd_sc_hd__fill_2
XFILLER_54_203 vssd1 vssd1 vccd1 vccd1 sky130_fd_sc_hd__fill_2
XFILLER_82_545 vccd1 vssd1 vccd1 vssd1 sky130_ef_sc_hd__decap_40_12
XFILLER_67_597 vccd1 vssd1 vccd1 vssd1 sky130_ef_sc_hd__decap_40_12
XFILLER_82_589 vccd1 vssd1 vccd1 vssd1 sky130_ef_sc_hd__decap_40_12
XFILLER_35_461 vccd1 vssd1 vccd1 vssd1 sky130_ef_sc_hd__decap_40_12
XFILLER_22_133 vssd1 vssd1 vccd1 vccd1 sky130_fd_sc_hd__fill_4
XFILLER_52_29 vccd1 vssd1 vccd1 vssd1 sky130_ef_sc_hd__decap_40_12
XFILLER_22_177 vccd1 vssd1 vccd1 vssd1 sky130_ef_sc_hd__decap_40_12
XFILLER_89_111 vssd1 vssd1 vccd1 vccd1 sky130_fd_sc_hd__fill_1
XFILLER_77_15 vccd1 vssd1 vccd1 vssd1 sky130_ef_sc_hd__decap_40_12
Xtop_soc_280 vssd1 vssd1 vccd1 vccd1 io_oeb[30] top_soc_280/LO sky130_fd_sc_hd__conb_1
XFILLER_77_317 vssd1 vssd1 vccd1 vccd1 sky130_fd_sc_hd__fill_8
XFILLER_58_531 vssd1 vssd1 vccd1 vccd1 sky130_fd_sc_hd__fill_1
XFILLER_92_309 vccd1 vssd1 vccd1 vssd1 sky130_ef_sc_hd__decap_40_12
XFILLER_85_361 vccd1 vssd1 vccd1 vssd1 sky130_ef_sc_hd__decap_40_12
XFILLER_73_501 vssd1 vssd1 vccd1 vccd1 sky130_fd_sc_hd__fill_2
XFILLER_18_417 vssd1 vssd1 vccd1 vccd1 sky130_fd_sc_hd__fill_2
XFILLER_45_225 vccd1 vssd1 vccd1 vssd1 sky130_ef_sc_hd__decap_40_12
XFILLER_93_69 vccd1 vssd1 vccd1 vssd1 sky130_ef_sc_hd__decap_40_12
XFILLER_26_41 vccd1 vssd1 vccd1 vssd1 sky130_ef_sc_hd__decap_40_12
XFILLER_45_247 vssd1 vssd1 vccd1 vccd1 sky130_fd_sc_hd__fill_2
X_501_ _528_/A vssd1 vssd1 vccd1 vccd1 _501_/Y sky130_fd_sc_hd__inv_2
XFILLER_60_206 vssd1 vssd1 vccd1 vccd1 sky130_fd_sc_hd__fill_2
XFILLER_14_601 vccd1 vssd1 vccd1 vssd1 sky130_ef_sc_hd__decap_40_12
X_432_ _551_/D _552_/D hold5/X _431_/X _556_/D vssd1 vssd1 vccd1 vccd1 _433_/C sky130_fd_sc_hd__a41o_1
XFILLER_13_111 vssd1 vssd1 vccd1 vccd1 sky130_fd_sc_hd__fill_1
XFILLER_26_85 vccd1 vssd1 vccd1 vssd1 sky130_ef_sc_hd__decap_40_12
X_363_ _549_/Q _534_/Q vssd1 vssd1 vccd1 vccd1 _393_/C sky130_fd_sc_hd__nand2b_2
XFILLER_9_137 vccd1 vssd1 vccd1 vssd1 sky130_ef_sc_hd__decap_40_12
XFILLER_41_497 vssd1 vssd1 vccd1 vccd1 sky130_fd_sc_hd__fill_4
X_294_ _448_/A1 hold67/X _299_/S vssd1 vssd1 vccd1 vccd1 _579_/D sky130_fd_sc_hd__mux2_1
XANTENNA__329__B2 _549_/D vssd1 vssd1 vccd1 vccd1 sky130_fd_sc_hd__diode_2
XTAP_TAPCELL_ROW_11_345 vssd1 vccd1 sky130_fd_sc_hd__tapvpwrvgnd_1
XTAP_TAPCELL_ROW_97_1288 vssd1 vccd1 sky130_fd_sc_hd__tapvpwrvgnd_1
XFILLER_95_125 vccd1 vssd1 vccd1 vssd1 sky130_ef_sc_hd__decap_40_12
XFILLER_95_169 vccd1 vssd1 vccd1 vssd1 sky130_ef_sc_hd__decap_40_12
XFILLER_76_361 vssd1 vssd1 vccd1 vccd1 sky130_fd_sc_hd__fill_2
XFILLER_67_92 vccd1 vssd1 vccd1 vssd1 sky130_ef_sc_hd__decap_40_12
XANTENNA_output56_A _564_/Q vssd1 vssd1 vccd1 vccd1 sky130_fd_sc_hd__diode_2
XFILLER_49_553 vssd1 vssd1 vccd1 vccd1 sky130_fd_sc_hd__fill_4
XTAP_TAPCELL_ROW_47_732 vssd1 vccd1 sky130_fd_sc_hd__tapvpwrvgnd_1
XFILLER_49_597 vccd1 vssd1 vccd1 vssd1 sky130_ef_sc_hd__decap_40_12
XFILLER_64_545 vccd1 vssd1 vccd1 vssd1 sky130_ef_sc_hd__decap_40_12
XTAP_TAPCELL_ROW_19_434 vssd1 vccd1 sky130_fd_sc_hd__tapvpwrvgnd_1
XFILLER_64_589 vccd1 vssd1 vccd1 vssd1 sky130_ef_sc_hd__decap_40_12
XFILLER_17_461 vccd1 vssd1 vccd1 vssd1 sky130_ef_sc_hd__decap_40_12
XANTENNA__275__S _289_/S vssd1 vssd1 vccd1 vccd1 sky130_fd_sc_hd__diode_2
XFILLER_32_475 vssd1 vssd1 vccd1 vccd1 sky130_fd_sc_hd__fill_1
XANTENNA__304__A _304_/A vssd1 vssd1 vccd1 vccd1 sky130_fd_sc_hd__diode_2
XTAP_TAPCELL_ROW_74_1030 vssd1 vccd1 sky130_fd_sc_hd__tapvpwrvgnd_1
XFILLER_87_615 vssd1 vssd1 vccd1 vccd1 sky130_fd_sc_hd__fill_1
XFILLER_101_447 vssd1 vssd1 vccd1 vccd1 sky130_fd_sc_hd__fill_1
XFILLER_74_309 vccd1 vssd1 vccd1 vssd1 sky130_ef_sc_hd__decap_40_12
XFILLER_67_361 vccd1 vssd1 vccd1 vssd1 sky130_ef_sc_hd__decap_40_12
XFILLER_55_501 vssd1 vssd1 vccd1 vccd1 sky130_fd_sc_hd__fill_2
XFILLER_27_225 vccd1 vssd1 vccd1 vssd1 sky130_ef_sc_hd__decap_40_12
XFILLER_63_39 vccd1 vssd1 vccd1 vssd1 sky130_ef_sc_hd__decap_40_12
XFILLER_11_615 vssd1 vssd1 vccd1 vccd1 sky130_fd_sc_hd__fill_1
XFILLER_23_497 vssd1 vssd1 vccd1 vccd1 sky130_fd_sc_hd__fill_4
XFILLER_12_65 vccd1 vssd1 vccd1 vssd1 sky130_ef_sc_hd__decap_40_12
XFILLER_2_357 vssd1 vssd1 vccd1 vccd1 sky130_fd_sc_hd__fill_4
XFILLER_77_125 vccd1 vssd1 vccd1 vssd1 sky130_ef_sc_hd__decap_40_12
XFILLER_77_169 vccd1 vssd1 vccd1 vssd1 sky130_ef_sc_hd__decap_40_12
XFILLER_100_480 vssd1 vssd1 vccd1 vccd1 sky130_fd_sc_hd__fill_2
XFILLER_92_139 vssd1 vssd1 vccd1 vccd1 sky130_fd_sc_hd__fill_1
XFILLER_46_545 vccd1 vssd1 vccd1 vssd1 sky130_ef_sc_hd__decap_40_12
XFILLER_33_217 vssd1 vssd1 vccd1 vccd1 sky130_fd_sc_hd__fill_4
XTAP_TAPCELL_ROW_44_702 vssd1 vccd1 sky130_fd_sc_hd__tapvpwrvgnd_1
XFILLER_46_589 vccd1 vssd1 vccd1 vssd1 sky130_ef_sc_hd__decap_40_12
XFILLER_61_559 vssd1 vssd1 vccd1 vccd1 sky130_fd_sc_hd__fill_1
X_415_ _379_/X _411_/Y _413_/Y _414_/Y vssd1 vssd1 vccd1 vccd1 _415_/X sky130_fd_sc_hd__o211a_1
XFILLER_53_72 vssd1 vssd1 vccd1 vccd1 sky130_fd_sc_hd__fill_4
XTAP_TAPCELL_ROW_99_1306 vssd1 vccd1 sky130_fd_sc_hd__tapvpwrvgnd_1
XFILLER_14_475 vssd1 vssd1 vccd1 vccd1 sky130_fd_sc_hd__fill_1
XTAP_TAPCELL_ROW_24_481 vssd1 vccd1 sky130_fd_sc_hd__tapvpwrvgnd_1
XFILLER_53_94 vccd1 vssd1 vccd1 vssd1 sky130_ef_sc_hd__decap_40_12
XTAP_TAPCELL_ROW_52_790 vssd1 vccd1 sky130_fd_sc_hd__tapvpwrvgnd_1
X_346_ _583_/Q _582_/Q _585_/Q _584_/Q vssd1 vssd1 vccd1 vccd1 _347_/B sky130_fd_sc_hd__or4_1
X_277_ _277_/A0 hold21/X _289_/S vssd1 vssd1 vccd1 vccd1 _602_/D sky130_fd_sc_hd__mux2_1
XFILLER_96_401 vssd1 vssd1 vccd1 vccd1 sky130_fd_sc_hd__fill_2
XFILLER_69_615 vssd1 vssd1 vccd1 vccd1 sky130_fd_sc_hd__fill_1
XANTENNA_hold6_X hold6/X vssd1 vssd1 vccd1 vccd1 sky130_fd_sc_hd__diode_2
XFILLER_96_434 vssd1 vssd1 vccd1 vccd1 sky130_fd_sc_hd__fill_2
XFILLER_96_489 vccd1 vssd1 vccd1 vssd1 sky130_ef_sc_hd__decap_40_12
XFILLER_1_390 vssd1 vssd1 vccd1 vccd1 sky130_fd_sc_hd__fill_2
XFILLER_56_309 vccd1 vssd1 vccd1 vssd1 sky130_ef_sc_hd__decap_40_12
XFILLER_37_501 vssd1 vssd1 vccd1 vccd1 sky130_fd_sc_hd__fill_2
XFILLER_91_161 vssd1 vssd1 vccd1 vccd1 sky130_fd_sc_hd__fill_4
XFILLER_60_581 vssd1 vssd1 vccd1 vccd1 sky130_fd_sc_hd__fill_4
XFILLER_20_401 vccd1 vssd1 vccd1 vssd1 sky130_ef_sc_hd__decap_40_12
XFILLER_20_445 vccd1 vssd1 vccd1 vssd1 sky130_ef_sc_hd__decap_40_12
XFILLER_20_489 vccd1 vssd1 vccd1 vssd1 sky130_ef_sc_hd__decap_40_12
XFILLER_87_445 vssd1 vssd1 vccd1 vccd1 sky130_fd_sc_hd__fill_2
XFILLER_59_125 vccd1 vssd1 vccd1 vssd1 sky130_ef_sc_hd__decap_40_12
XFILLER_101_244 vssd1 vssd1 vccd1 vccd1 sky130_fd_sc_hd__fill_8
XFILLER_59_169 vssd1 vssd1 vccd1 vccd1 sky130_fd_sc_hd__fill_4
XFILLER_74_139 vssd1 vssd1 vccd1 vccd1 sky130_fd_sc_hd__fill_1
XFILLER_28_501 vccd1 vssd1 vccd1 vssd1 sky130_ef_sc_hd__decap_40_12
XFILLER_74_27 vssd1 vssd1 vccd1 vccd1 sky130_fd_sc_hd__fill_1
XFILLER_28_545 vccd1 vssd1 vccd1 vssd1 sky130_ef_sc_hd__decap_40_12
XFILLER_15_217 vssd1 vssd1 vccd1 vccd1 sky130_fd_sc_hd__fill_4
XFILLER_28_589 vccd1 vssd1 vccd1 vssd1 sky130_ef_sc_hd__decap_40_12
XFILLER_55_353 vccd1 vssd1 vccd1 vssd1 sky130_ef_sc_hd__decap_40_12
XTAP_TAPCELL_ROW_83_1129 vssd1 vccd1 sky130_fd_sc_hd__tapvpwrvgnd_1
XFILLER_70_345 vccd1 vssd1 vccd1 vssd1 sky130_ef_sc_hd__decap_40_12
XFILLER_43_559 vssd1 vssd1 vccd1 vccd1 sky130_fd_sc_hd__fill_1
XFILLER_90_15 vccd1 vssd1 vccd1 vssd1 sky130_ef_sc_hd__decap_40_12
XFILLER_30_209 vccd1 vssd1 vccd1 vssd1 sky130_ef_sc_hd__decap_40_12
XFILLER_70_389 vccd1 vssd1 vccd1 vssd1 sky130_ef_sc_hd__decap_40_12
XFILLER_23_261 vccd1 vssd1 vccd1 vssd1 sky130_ef_sc_hd__decap_40_12
XFILLER_11_445 vssd1 vssd1 vccd1 vccd1 sky130_fd_sc_hd__fill_2
XFILLER_7_405 vccd1 vssd1 vccd1 vssd1 sky130_ef_sc_hd__decap_40_12
XFILLER_7_449 vccd1 vssd1 vccd1 vssd1 sky130_ef_sc_hd__decap_40_12
XTAP_TAPCELL_ROW_21_451 vssd1 vccd1 sky130_fd_sc_hd__tapvpwrvgnd_1
XFILLER_99_57 vccd1 vssd1 vccd1 vssd1 sky130_ef_sc_hd__decap_40_12
XTAP_TAPCELL_ROW_94_1258 vssd1 vccd1 sky130_fd_sc_hd__tapvpwrvgnd_1
XFILLER_2_121 vccd1 vssd1 vccd1 vssd1 sky130_ef_sc_hd__decap_40_12
XFILLER_78_401 vccd1 vssd1 vccd1 vssd1 sky130_ef_sc_hd__decap_40_12
XFILLER_2_165 vccd1 vssd1 vccd1 vssd1 sky130_ef_sc_hd__decap_40_12
XFILLER_38_309 vccd1 vssd1 vccd1 vssd1 sky130_ef_sc_hd__decap_40_12
XFILLER_78_489 vccd1 vssd1 vccd1 vssd1 sky130_ef_sc_hd__decap_40_12
XFILLER_19_501 vssd1 vssd1 vccd1 vccd1 sky130_fd_sc_hd__fill_2
XFILLER_48_83 vssd1 vssd1 vccd1 vccd1 sky130_fd_sc_hd__fill_1
XFILLER_80_109 vccd1 vssd1 vccd1 vssd1 sky130_ef_sc_hd__decap_40_12
XFILLER_73_161 vssd1 vssd1 vccd1 vccd1 sky130_fd_sc_hd__fill_4
XFILLER_0_57 vccd1 vssd1 vccd1 vssd1 sky130_ef_sc_hd__decap_40_12
XTAP_TAPCELL_ROW_29_540 vssd1 vccd1 sky130_fd_sc_hd__tapvpwrvgnd_1
XFILLER_42_581 vssd1 vssd1 vccd1 vccd1 sky130_fd_sc_hd__fill_4
XFILLER_9_55 vssd1 vssd1 vccd1 vccd1 sky130_fd_sc_hd__fill_1
XFILLER_80_81 vssd1 vssd1 vccd1 vccd1 sky130_fd_sc_hd__fill_2
X_329_ _578_/Q _291_/B _310_/Y _549_/D _303_/X vssd1 vssd1 vccd1 vccd1 _329_/X sky130_fd_sc_hd__a221o_1
XFILLER_50_3 vssd1 vssd1 vccd1 vccd1 sky130_fd_sc_hd__fill_1
XFILLER_88_209 vssd1 vssd1 vccd1 vccd1 sky130_fd_sc_hd__fill_4
XTAP_TAPCELL_ROW_71_1000 vssd1 vccd1 sky130_fd_sc_hd__tapvpwrvgnd_1
XFILLER_69_445 vssd1 vssd1 vccd1 vccd1 sky130_fd_sc_hd__fill_2
XFILLER_96_253 vssd1 vssd1 vccd1 vccd1 sky130_fd_sc_hd__fill_1
XFILLER_71_109 vssd1 vssd1 vccd1 vccd1 sky130_fd_sc_hd__fill_2
XFILLER_25_559 vssd1 vssd1 vccd1 vccd1 sky130_fd_sc_hd__fill_1
XFILLER_12_209 vccd1 vssd1 vccd1 vssd1 sky130_ef_sc_hd__decap_40_12
XFILLER_52_378 vccd1 vssd1 vccd1 vssd1 sky130_ef_sc_hd__decap_40_12
XFILLER_40_529 vssd1 vssd1 vccd1 vccd1 sky130_fd_sc_hd__fill_2
XFILLER_60_29 vccd1 vssd1 vccd1 vssd1 sky130_ef_sc_hd__decap_40_12
XFILLER_20_253 vccd1 vssd1 vccd1 vssd1 sky130_ef_sc_hd__decap_40_12
XFILLER_4_419 vssd1 vssd1 vccd1 vccd1 sky130_fd_sc_hd__fill_1
XFILLER_85_15 vccd1 vssd1 vccd1 vssd1 sky130_ef_sc_hd__decap_40_12
XFILLER_18_53 vccd1 vssd1 vccd1 vssd1 sky130_ef_sc_hd__decap_40_12
XFILLER_47_139 vssd1 vssd1 vccd1 vccd1 sky130_fd_sc_hd__fill_1
XFILLER_18_97 vccd1 vssd1 vccd1 vssd1 sky130_ef_sc_hd__decap_40_12
XTAP_TAPCELL_ROW_26_510 vssd1 vccd1 sky130_fd_sc_hd__tapvpwrvgnd_1
XFILLER_70_153 vccd1 vssd1 vccd1 vssd1 sky130_ef_sc_hd__decap_40_12
XFILLER_24_581 vssd1 vssd1 vccd1 vccd1 sky130_fd_sc_hd__fill_4
XFILLER_31_529 vccd1 vssd1 vccd1 vssd1 sky130_ef_sc_hd__decap_40_12
XFILLER_34_41 vccd1 vssd1 vccd1 vssd1 sky130_ef_sc_hd__decap_40_12
XFILLER_70_197 vssd1 vssd1 vccd1 vccd1 sky130_fd_sc_hd__fill_1
XFILLER_34_85 vccd1 vssd1 vccd1 vssd1 sky130_ef_sc_hd__decap_40_12
XFILLER_7_279 vssd1 vssd1 vccd1 vccd1 sky130_fd_sc_hd__fill_1
XFILLER_3_441 vssd1 vssd1 vccd1 vccd1 sky130_fd_sc_hd__fill_4
Xtop_soc_109 vssd1 vssd1 vccd1 vccd1 top_soc_109/HI la_data_out[5] sky130_fd_sc_hd__conb_1
XFILLER_3_485 vccd1 vssd1 vccd1 vssd1 sky130_ef_sc_hd__decap_40_12
XFILLER_78_253 vccd1 vssd1 vccd1 vssd1 sky130_ef_sc_hd__decap_40_12
XFILLER_59_93 vccd1 vssd1 vccd1 vssd1 sky130_ef_sc_hd__decap_40_12
XFILLER_22_7 vccd1 vssd1 vccd1 vssd1 sky130_ef_sc_hd__decap_40_12
XFILLER_93_223 vssd1 vssd1 vccd1 vccd1 sky130_fd_sc_hd__fill_1
XTAP_TAPCELL_ROW_6_290 vssd1 vccd1 sky130_fd_sc_hd__tapvpwrvgnd_1
XFILLER_38_139 vssd1 vssd1 vccd1 vccd1 sky130_fd_sc_hd__fill_1
XFILLER_81_429 vccd1 vssd1 vccd1 vssd1 sky130_ef_sc_hd__decap_40_12
XFILLER_75_81 vccd1 vssd1 vccd1 vssd1 sky130_ef_sc_hd__decap_40_12
XFILLER_34_301 vssd1 vssd1 vccd1 vccd1 sky130_fd_sc_hd__fill_4
XFILLER_46_194 vssd1 vssd1 vccd1 vccd1 sky130_fd_sc_hd__fill_2
XFILLER_61_153 vssd1 vssd1 vccd1 vccd1 sky130_fd_sc_hd__fill_1
XFILLER_61_120 vccd1 vssd1 vccd1 vssd1 sky130_ef_sc_hd__decap_40_12
XFILLER_34_345 vccd1 vssd1 vccd1 vssd1 sky130_ef_sc_hd__decap_40_12
XFILLER_98_3 vccd1 vssd1 vccd1 vssd1 sky130_ef_sc_hd__decap_40_12
XFILLER_22_529 vssd1 vssd1 vccd1 vccd1 sky130_fd_sc_hd__fill_2
XFILLER_34_389 vccd1 vssd1 vccd1 vssd1 sky130_ef_sc_hd__decap_40_12
XANTENNA__283__S _289_/S vssd1 vssd1 vccd1 vccd1 sky130_fd_sc_hd__diode_2
XANTENNA__443__A2_N _440_/Y vssd1 vssd1 vccd1 vccd1 sky130_fd_sc_hd__diode_2
XTAP_TAPCELL_ROW_60_877 vssd1 vccd1 sky130_fd_sc_hd__tapvpwrvgnd_1
XTAP_TAPCELL_ROW_32_568 vssd1 vccd1 sky130_fd_sc_hd__tapvpwrvgnd_1
XFILLER_89_529 vccd1 vssd1 vccd1 vssd1 sky130_ef_sc_hd__decap_40_12
XFILLER_69_231 vssd1 vssd1 vccd1 vccd1 sky130_fd_sc_hd__fill_4
XFILLER_97_573 vccd1 vssd1 vccd1 vssd1 sky130_ef_sc_hd__decap_40_12
XFILLER_69_275 vssd1 vssd1 vccd1 vccd1 sky130_fd_sc_hd__fill_4
XFILLER_57_415 vssd1 vssd1 vccd1 vccd1 sky130_fd_sc_hd__fill_1
XTAP_TAPCELL_ROW_68_966 vssd1 vccd1 sky130_fd_sc_hd__tapvpwrvgnd_1
XFILLER_84_289 vccd1 vssd1 vccd1 vssd1 sky130_ef_sc_hd__decap_40_12
XFILLER_37_161 vssd1 vssd1 vccd1 vccd1 sky130_fd_sc_hd__fill_4
XFILLER_80_473 vssd1 vssd1 vccd1 vccd1 sky130_fd_sc_hd__fill_2
XFILLER_13_529 vccd1 vssd1 vccd1 vssd1 sky130_ef_sc_hd__decap_40_12
XFILLER_25_389 vssd1 vssd1 vccd1 vccd1 sky130_fd_sc_hd__fill_2
XFILLER_52_186 vssd1 vssd1 vccd1 vccd1 sky130_fd_sc_hd__fill_8
XFILLER_52_197 vssd1 vssd1 vccd1 vccd1 sky130_fd_sc_hd__fill_1
XFILLER_21_573 vccd1 vssd1 vccd1 vssd1 sky130_ef_sc_hd__decap_40_12
XFILLER_4_249 vssd1 vssd1 vccd1 vccd1 sky130_fd_sc_hd__fill_2
XTAP_TAPCELL_ROW_91_1217 vssd1 vccd1 sky130_fd_sc_hd__tapvpwrvgnd_1
XFILLER_20_65 vccd1 vssd1 vccd1 vssd1 sky130_ef_sc_hd__decap_40_12
XFILLER_0_433 vssd1 vssd1 vccd1 vccd1 sky130_fd_sc_hd__fill_4
XFILLER_0_455 vssd1 vssd1 vccd1 vccd1 sky130_fd_sc_hd__fill_2
Xhold30 _567_/Q vssd1 vssd1 vccd1 vccd1 hold30/X sky130_fd_sc_hd__dlygate4sd3_1