*SPEF "ieee 1481-1999"
*DESIGN "top_soc"
*DATE "14:44:40 Saturday April 04, 2026"
*VENDOR "The OpenROAD Project"
*PROGRAM "OpenROAD"
*VERSION "edf00dff99f6c40d67a30c0e22a8191c5d2ed9d6"
*DESIGN_FLOW "NAME_SCOPE LOCAL" "PIN_CAP NONE"
*DIVIDER /
*DELIMITER :
*BUS_DELIMITER []
*T_UNIT 1 NS
*C_UNIT 1 PF
*R_UNIT 1 OHM
*L_UNIT 1 HENRY

*NAME_MAP
*1 adc_data_in[0]
*2 adc_data_in[10]
*3 adc_data_in[11]
*4 adc_data_in[1]
*5 adc_data_in[2]
*6 adc_data_in[3]
*7 adc_data_in[4]
*8 adc_data_in[5]
*9 adc_data_in[6]
*10 adc_data_in[7]
*11 adc_data_in[8]
*12 adc_data_in[9]
*13 user_irq[0]
*14 net66
*15 net67
*18 wb_clk_i
*19 wb_rst_i
*20 wbs_ack_o
*21 wbs_adr_i[0]
*22 wbs_adr_i[10]
*23 wbs_adr_i[11]
*24 wbs_adr_i[12]
*25 wbs_adr_i[13]
*26 wbs_adr_i[14]
*27 wbs_adr_i[15]
*28 wbs_adr_i[16]
*29 wbs_adr_i[17]
*30 wbs_adr_i[18]
*31 wbs_adr_i[19]
*32 wbs_adr_i[1]
*33 wbs_adr_i[20]
*34 wbs_adr_i[21]
*35 wbs_adr_i[22]
*36 wbs_adr_i[23]
*37 wbs_adr_i[24]
*38 wbs_adr_i[25]
*39 wbs_adr_i[26]
*40 wbs_adr_i[27]
*41 wbs_adr_i[28]
*42 wbs_adr_i[29]
*43 wbs_adr_i[2]
*44 wbs_adr_i[30]
*45 wbs_adr_i[31]
*46 wbs_adr_i[3]
*47 wbs_adr_i[4]
*48 wbs_adr_i[5]
*49 wbs_adr_i[6]
*50 wbs_adr_i[7]
*51 wbs_adr_i[8]
*52 wbs_adr_i[9]
*53 wbs_cyc_i
*54 wbs_dat_i[0]
*55 wbs_dat_i[10]
*56 wbs_dat_i[11]
*57 wbs_dat_i[12]
*58 wbs_dat_i[13]
*59 wbs_dat_i[14]
*60 wbs_dat_i[15]
*61 wbs_dat_i[16]
*62 wbs_dat_i[17]
*63 wbs_dat_i[18]
*64 wbs_dat_i[19]
*65 wbs_dat_i[1]
*66 wbs_dat_i[20]
*67 wbs_dat_i[21]
*68 wbs_dat_i[22]
*69 wbs_dat_i[23]
*70 wbs_dat_i[24]
*71 wbs_dat_i[25]
*72 wbs_dat_i[26]
*73 wbs_dat_i[27]
*74 wbs_dat_i[28]
*75 wbs_dat_i[29]
*76 wbs_dat_i[2]
*77 wbs_dat_i[30]
*78 wbs_dat_i[31]
*79 wbs_dat_i[3]
*80 wbs_dat_i[4]
*81 wbs_dat_i[5]
*82 wbs_dat_i[6]
*83 wbs_dat_i[7]
*84 wbs_dat_i[8]
*85 wbs_dat_i[9]
*86 wbs_dat_o[0]
*87 wbs_dat_o[10]
*88 wbs_dat_o[11]
*89 wbs_dat_o[12]
*90 wbs_dat_o[13]
*91 wbs_dat_o[14]
*92 wbs_dat_o[15]
*93 net68
*94 net69
*95 net70
*96 net71
*97 wbs_dat_o[1]
*98 net72
*99 net73
*100 net74
*101 net75
*102 net76
*103 net77
*104 net78
*105 net79
*106 net80
*107 net81
*108 wbs_dat_o[2]
*109 net82
*110 net83
*111 wbs_dat_o[3]
*112 wbs_dat_o[4]
*113 wbs_dat_o[5]
*114 wbs_dat_o[6]
*115 wbs_dat_o[7]
*116 wbs_dat_o[8]
*117 wbs_dat_o[9]
*118 wbs_sel_i[0]
*119 wbs_sel_i[1]
*120 wbs_sel_i[2]
*121 wbs_sel_i[3]
*122 wbs_stb_i
*123 wbs_we_i
*124 _000_
*125 _001_
*126 _002_
*127 _003_
*128 _004_
*129 _005_
*130 _006_
*131 _007_
*132 _008_
*133 _009_
*134 _010_
*135 _011_
*136 _012_
*137 _013_
*138 _014_
*139 _015_
*140 _016_
*141 _017_
*142 _018_
*143 _019_
*144 _020_
*145 _021_
*146 _022_
*147 _023_
*148 _024_
*149 _025_
*150 _026_
*151 _027_
*152 _028_
*153 _029_
*154 _030_
*155 _031_
*156 _032_
*157 _033_
*158 _034_
*159 _035_
*160 _036_
*161 _037_
*162 _038_
*163 _039_
*164 _040_
*165 _041_
*166 _042_
*167 _043_
*168 _044_
*169 _045_
*170 _046_
*171 _047_
*172 _048_
*173 _049_
*174 _050_
*175 _051_
*176 _052_
*177 _053_
*178 _054_
*179 _055_
*180 _056_
*181 _057_
*182 _058_
*183 _059_
*184 _060_
*185 _061_
*186 _062_
*187 _063_
*188 _064_
*189 _065_
*190 _066_
*191 _067_
*192 _068_
*193 _069_
*194 _070_
*195 _071_
*196 _072_
*197 _073_
*198 _074_
*199 _075_
*200 _076_
*201 _077_
*202 _078_
*203 _079_
*204 _080_
*205 _081_
*206 _082_
*207 _083_
*208 _084_
*209 _085_
*210 _086_
*211 _087_
*212 _088_
*213 _089_
*214 _090_
*215 _091_
*216 _092_
*217 _093_
*218 _094_
*219 _095_
*220 _096_
*221 _097_
*222 _098_
*223 _099_
*224 _100_
*225 _101_
*226 _102_
*227 _103_
*228 _104_
*229 _105_
*230 _106_
*231 _107_
*232 _108_
*233 _109_
*234 _110_
*235 _111_
*236 _112_
*237 _113_
*238 _114_
*239 _115_
*240 _116_
*241 _117_
*242 _118_
*243 _119_
*244 _120_
*245 _121_
*246 _122_
*247 _123_
*248 _124_
*249 _125_
*250 _126_
*251 _127_
*252 _128_
*253 _129_
*254 _130_
*255 _131_
*256 _132_
*257 _133_
*258 _134_
*259 _135_
*260 _136_
*261 _137_
*262 _138_
*263 _139_
*264 _140_
*265 _141_
*266 _142_
*267 _143_
*268 _144_
*269 _145_
*270 _146_
*271 _147_
*272 _148_
*273 _149_
*274 _150_
*275 _151_
*276 _152_
*277 _153_
*278 _154_
*279 _155_
*280 _156_
*281 _157_
*282 _158_
*283 _159_
*284 _160_
*285 _161_
*286 _162_
*287 _163_
*288 _164_
*289 _165_
*290 _166_
*291 _167_
*292 _168_
*293 _169_
*294 _170_
*295 _171_
*296 _172_
*297 _173_
*298 _174_
*299 _175_
*300 _176_
*301 _177_
*302 _178_
*303 _179_
*304 _180_
*305 _181_
*306 _182_
*307 _183_
*308 _184_
*309 _185_
*310 _186_
*311 _187_
*312 _188_
*313 _189_
*314 _190_
*315 _191_
*316 _192_
*317 _193_
*318 _194_
*319 _195_
*320 _196_
*321 _197_
*322 _198_
*323 _199_
*324 _200_
*325 _201_
*326 _202_
*327 _203_
*328 _204_
*329 _205_
*330 _206_
*331 _207_
*332 _208_
*333 _209_
*334 _210_
*335 _211_
*336 _212_
*337 _213_
*338 _214_
*339 _215_
*340 _216_
*341 _217_
*342 _218_
*343 _219_
*344 _220_
*345 _221_
*346 _222_
*347 _223_
*348 _224_
*349 _225_
*350 _226_
*351 _227_
*352 _228_
*353 _229_
*354 _230_
*355 _231_
*356 _232_
*357 _233_
*358 _234_
*359 _235_
*360 _236_
*361 _237_
*362 _238_
*363 _239_
*364 _240_
*365 _241_
*366 _242_
*367 _243_
*368 _244_
*369 _245_
*370 _246_
*371 _247_
*372 _248_
*373 _249_
*374 _250_
*375 _251_
*376 _252_
*377 _253_
*378 _254_
*379 _255_
*380 _256_
*381 _257_
*382 _258_
*383 _259_
*384 adc_value_ext\[0\]
*385 adc_value_ext\[10\]
*386 adc_value_ext\[11\]
*387 adc_value_ext\[1\]
*388 adc_value_ext\[2\]
*389 adc_value_ext\[3\]
*390 adc_value_ext\[4\]
*391 adc_value_ext\[5\]
*392 adc_value_ext\[6\]
*393 adc_value_ext\[7\]
*394 adc_value_ext\[8\]
*395 adc_value_ext\[9\]
*396 clknet_0_wb_clk_i
*397 clknet_3_0__leaf_wb_clk_i
*398 clknet_3_1__leaf_wb_clk_i
*399 clknet_3_2__leaf_wb_clk_i
*400 clknet_3_3__leaf_wb_clk_i
*401 clknet_3_4__leaf_wb_clk_i
*402 clknet_3_5__leaf_wb_clk_i
*403 clknet_3_6__leaf_wb_clk_i
*404 clknet_3_7__leaf_wb_clk_i
*405 enable
*406 fault_flag
*407 fault_flags_bus\[1\]
*408 fault_flags_bus\[2\]
*409 fault_mask\[0\]
*410 fault_mask\[1\]
*411 fault_mask\[2\]
*412 fault_mask\[3\]
*413 fault_mask\[4\]
*414 fault_mask\[5\]
*415 fault_mask\[6\]
*416 fault_mask\[7\]
*417 irq
*418 net1
*419 net10
*420 net100
*421 net101
*422 net102
*423 net103
*424 net104
*425 net105
*426 net106
*427 net107
*428 net108
*429 net109
*430 net11
*431 net110
*432 net111
*433 net112
*434 net113
*435 net114
*436 net115
*437 net116
*438 net117
*439 net118
*440 net119
*441 net12
*442 net120
*443 net121
*444 net122
*445 net123
*446 net124
*447 net125
*448 net126
*449 net127
*450 net128
*451 net129
*452 net13
*453 net130
*454 net131
*455 net132
*456 net133
*457 net134
*458 net135
*459 net136
*460 net137
*461 net138
*462 net139
*463 net14
*464 net140
*465 net141
*466 net142
*467 net143
*468 net144
*469 net145
*470 net146
*471 net147
*472 net148
*473 net149
*474 net15
*475 net150
*476 net151
*477 net152
*478 net153
*479 net154
*480 net155
*481 net156
*482 net157
*483 net158
*484 net159
*485 net16
*486 net160
*487 net161
*488 net162
*489 net163
*490 net164
*491 net165
*492 net166
*493 net167
*494 net168
*495 net169
*496 net17
*497 net170
*498 net171
*499 net172
*500 net18
*501 net19
*502 net2
*503 net20
*504 net21
*505 net22
*506 net23
*507 net24
*508 net25
*509 net26
*510 net27
*511 net28
*512 net29
*513 net3
*514 net30
*515 net31
*516 net32
*517 net33
*518 net34
*519 net35
*520 net36
*521 net37
*522 net38
*523 net39
*524 net4
*525 net40
*526 net41
*527 net42
*528 net43
*529 net44
*530 net45
*531 net46
*532 net47
*533 net48
*534 net49
*535 net5
*536 net50
*537 net51
*538 net52
*539 net53
*540 net54
*541 net55
*542 net56
*543 net57
*544 net58
*545 net59
*546 net6
*547 net60
*548 net61
*549 net62
*550 net63
*551 net64
*552 net65
*553 net7
*554 net8
*555 net84
*556 net85
*557 net86
*558 net87
*559 net88
*560 net89
*561 net9
*562 net90
*563 net91
*564 net92
*565 net93
*566 net94
*567 net95
*568 net96
*569 net97
*570 net98
*571 net99
*572 threshold\[0\]
*573 threshold\[10\]
*574 threshold\[11\]
*575 threshold\[12\]
*576 threshold\[13\]
*577 threshold\[14\]
*578 threshold\[15\]
*579 threshold\[1\]
*580 threshold\[2\]
*581 threshold\[3\]
*582 threshold\[4\]
*583 threshold\[5\]
*584 threshold\[6\]
*585 threshold\[7\]
*586 threshold\[8\]
*587 threshold\[9\]
*588 u_fault\.fault_detected_comb
*589 u_fault\.prev_sample\[0\]
*590 u_fault\.prev_sample\[10\]
*591 u_fault\.prev_sample\[11\]
*592 u_fault\.prev_sample\[1\]
*593 u_fault\.prev_sample\[2\]
*594 u_fault\.prev_sample\[3\]
*595 u_fault\.prev_sample\[4\]
*596 u_fault\.prev_sample\[5\]
*597 u_fault\.prev_sample\[6\]
*598 u_fault\.prev_sample\[7\]
*599 u_fault\.prev_sample\[8\]
*600 u_fault\.prev_sample\[9\]
*601 u_regs\.irq_latched\[0\]
*602 u_regs\.irq_latched\[1\]
*603 u_regs\.irq_latched\[2\]
*604 u_regs\.irq_latched\[3\]
*605 u_regs\.irq_latched\[4\]
*606 u_regs\.irq_latched\[5\]
*607 u_regs\.irq_latched\[6\]
*608 u_regs\.irq_latched\[7\]
*609 u_regs\.irq_next\[0\]
*610 u_regs\.irq_next\[1\]
*611 u_regs\.irq_next\[2\]
*612 u_regs\.irq_next\[3\]
*613 u_regs\.irq_next\[4\]
*614 u_regs\.irq_next\[5\]
*615 u_regs\.irq_next\[6\]
*616 u_regs\.irq_next\[7\]
*617 u_regs\.prev_fault_flags\[0\]
*618 u_regs\.prev_fault_flags\[1\]
*619 u_regs\.prev_fault_flags\[2\]
*620 ANTENNA_1
*621 ANTENNA_2
*622 ANTENNA__263__A
*623 ANTENNA__271__X
*624 ANTENNA__272__B
*625 ANTENNA__272__Y
*626 ANTENNA__274__S
*627 ANTENNA__275__S
*628 ANTENNA__276__S
*629 ANTENNA__277__S
*630 ANTENNA__278__S
*631 ANTENNA__279__S
*632 ANTENNA__280__S
*633 ANTENNA__281__S
*634 ANTENNA__282__S
*635 ANTENNA__283__A0
*636 ANTENNA__283__S
*637 ANTENNA__284__A0
*638 ANTENNA__284__S
*639 ANTENNA__285__S
*640 ANTENNA__286__A0
*641 ANTENNA__286__S
*642 ANTENNA__287__A0
*643 ANTENNA__287__S
*644 ANTENNA__288__A0
*645 ANTENNA__288__S
*646 ANTENNA__289__S
*647 ANTENNA__290__X
*648 ANTENNA__291__B
*649 ANTENNA__291__Y
*650 ANTENNA__292__S
*651 ANTENNA__293__A0
*652 ANTENNA__293__S
*653 ANTENNA__294__A0
*654 ANTENNA__294__S
*655 ANTENNA__295__S
*656 ANTENNA__296__A0
*657 ANTENNA__296__S
*658 ANTENNA__297__A0
*659 ANTENNA__297__S
*660 ANTENNA__298__A0
*661 ANTENNA__298__S
*662 ANTENNA__299__S
*663 ANTENNA__302__Y
*664 ANTENNA__303__X
*665 ANTENNA__304__A
*666 ANTENNA__304__B
*667 ANTENNA__304__X
*668 ANTENNA__305__A2
*669 ANTENNA__305__B1
*670 ANTENNA__306__A2
*671 ANTENNA__306__B1
*672 ANTENNA__307__A2
*673 ANTENNA__307__B1
*674 ANTENNA__308__A2
*675 ANTENNA__308__B1
*676 ANTENNA__311__B
*677 ANTENNA__311__C
*678 ANTENNA__312__A2
*679 ANTENNA__312__B1
*680 ANTENNA__313__B
*681 ANTENNA__313__C
*682 ANTENNA__314__A2
*683 ANTENNA__314__B1
*684 ANTENNA__315__B
*685 ANTENNA__315__C
*686 ANTENNA__316__A2
*687 ANTENNA__316__B1
*688 ANTENNA__317__A
*689 ANTENNA__317__B
*690 ANTENNA__317__C
*691 ANTENNA__318__A2
*692 ANTENNA__318__B1
*693 ANTENNA__319__A2
*694 ANTENNA__319__B2
*695 ANTENNA__319__C1
*696 ANTENNA__321__A2
*697 ANTENNA__322__A2
*698 ANTENNA__323__A2
*699 ANTENNA__324__A2
*700 ANTENNA__324__B1
*701 ANTENNA__324__C1
*702 ANTENNA__325__A2
*703 ANTENNA__326__A2
*704 ANTENNA__326__B1
*705 ANTENNA__326__C1
*706 ANTENNA__327__A2
*707 ANTENNA__328__A2
*708 ANTENNA__329__A2
*709 ANTENNA__329__B2
*710 ANTENNA__329__C1
*711 ANTENNA__330__A2
*712 ANTENNA__331__A2
*713 ANTENNA__332__A2
*714 ANTENNA__333__A2
*715 ANTENNA__333__B1
*716 ANTENNA__333__C1
*717 ANTENNA__334__A2
*718 ANTENNA__335__A2
*719 ANTENNA__335__B1
*720 ANTENNA__335__B2
*721 ANTENNA__335__C1
*722 ANTENNA__336__A2
*723 ANTENNA__337__A2
*724 ANTENNA__338__A2
*725 ANTENNA__339__A2
*726 ANTENNA__339__B1
*727 ANTENNA__339__C1
*728 ANTENNA__340__A2
*729 ANTENNA__342__A1
*730 ANTENNA__342__A2
*731 ANTENNA__342__C1
*732 ANTENNA__343__A2
*733 ANTENNA__343__B1
*734 ANTENNA__344__A2
*735 ANTENNA__362__A_N
*736 ANTENNA__363__B
*737 ANTENNA__387__A_N
*738 ANTENNA__388__B
*739 ANTENNA__428__B2
*740 ANTENNA__429__A2
*741 ANTENNA__431__A1
*742 ANTENNA__432__A3
*743 ANTENNA__443__A1_N
*744 ANTENNA__445__A1_N
*745 ANTENNA__446__A1
*746 ANTENNA__448__A1
*747 ANTENNA__449__A1
*748 ANTENNA__451__A
*749 ANTENNA__452__A
*750 ANTENNA__453__A
*751 ANTENNA__454__A
*752 ANTENNA__455__A
*753 ANTENNA__456__A
*754 ANTENNA__457__A
*755 ANTENNA__458__A
*756 ANTENNA__459__A
*757 ANTENNA__460__A
*758 ANTENNA__461__A
*759 ANTENNA__462__A
*760 ANTENNA__464__A
*761 ANTENNA__467__A
*762 ANTENNA__468__A
*763 ANTENNA__470__A
*764 ANTENNA__471__A
*765 ANTENNA__472__A
*766 ANTENNA__473__A
*767 ANTENNA__474__A
*768 ANTENNA__475__A
*769 ANTENNA__476__A
*770 ANTENNA__477__A
*771 ANTENNA__479__A
*772 ANTENNA__481__A
*773 ANTENNA__482__A
*774 ANTENNA__484__A
*775 ANTENNA__485__A
*776 ANTENNA__486__A
*777 ANTENNA__487__A
*778 ANTENNA__488__A
*779 ANTENNA__489__A
*780 ANTENNA__490__A
*781 ANTENNA__491__A
*782 ANTENNA__492__A
*783 ANTENNA__493__A
*784 ANTENNA__494__A
*785 ANTENNA__496__A
*786 ANTENNA__498__A
*787 ANTENNA__499__A
*788 ANTENNA__501__A
*789 ANTENNA__502__A
*790 ANTENNA__503__A
*791 ANTENNA__504__A
*792 ANTENNA__505__A
*793 ANTENNA__506__A
*794 ANTENNA__507__A
*795 ANTENNA__508__A
*796 ANTENNA__509__A
*797 ANTENNA__510__A
*798 ANTENNA__511__A
*799 ANTENNA__512__A
*800 ANTENNA__513__A
*801 ANTENNA__514__A
*802 ANTENNA__515__A
*803 ANTENNA__516__A
*804 ANTENNA__517__A
*805 ANTENNA__518__A
*806 ANTENNA__519__A
*807 ANTENNA__520__A
*808 ANTENNA__521__A
*809 ANTENNA__522__A
*810 ANTENNA__523__A
*811 ANTENNA__524__A
*812 ANTENNA__525__A
*813 ANTENNA__526__A
*814 ANTENNA__527__A
*815 ANTENNA__532__CLK
*816 ANTENNA__533__CLK
*817 ANTENNA__534__Q
*818 ANTENNA__535__CLK
*819 ANTENNA__536__CLK
*820 ANTENNA__537__CLK
*821 ANTENNA__537__Q
*822 ANTENNA__538__CLK
*823 ANTENNA__539__CLK
*824 ANTENNA__540__CLK
*825 ANTENNA__541__CLK
*826 ANTENNA__541__D
*827 ANTENNA__544__CLK
*828 ANTENNA__545__D
*829 ANTENNA__547__CLK
*830 ANTENNA__547__D
*831 ANTENNA__548__CLK
*832 ANTENNA__550__CLK
*833 ANTENNA__551__CLK
*834 ANTENNA__552__CLK
*835 ANTENNA__553__CLK
*836 ANTENNA__553__D
*837 ANTENNA__554__CLK
*838 ANTENNA__555__CLK
*839 ANTENNA__556__CLK
*840 ANTENNA__558__Q
*841 ANTENNA__559__CLK
*842 ANTENNA__565__CLK
*843 ANTENNA__566__CLK
*844 ANTENNA__567__CLK
*845 ANTENNA__568__CLK
*846 ANTENNA__569__CLK
*847 ANTENNA__570__CLK
*848 ANTENNA__571__CLK
*849 ANTENNA__572__CLK
*850 ANTENNA__573__CLK
*851 ANTENNA__574__CLK
*852 ANTENNA__589__CLK
*853 ANTENNA__590__CLK
*854 ANTENNA__592__CLK
*855 ANTENNA__598__CLK
*856 ANTENNA__599__CLK
*857 ANTENNA__600__CLK
*858 ANTENNA__601__CLK
*859 ANTENNA__602__CLK
*860 ANTENNA__603__CLK
*861 ANTENNA__604__CLK
*862 ANTENNA__605__CLK
*863 ANTENNA__606__CLK
*864 ANTENNA__607__CLK
*865 ANTENNA_clkbuf_0_wb_clk_i_A
*866 ANTENNA_clkbuf_0_wb_clk_i_X
*867 ANTENNA_clkbuf_3_0__f_wb_clk_i_A
*868 ANTENNA_clkbuf_3_0__f_wb_clk_i_X
*869 ANTENNA_clkbuf_3_1__f_wb_clk_i_A
*870 ANTENNA_clkbuf_3_2__f_wb_clk_i_A
*871 ANTENNA_clkbuf_3_2__f_wb_clk_i_X
*872 ANTENNA_clkbuf_3_3__f_wb_clk_i_A
*873 ANTENNA_clkbuf_3_3__f_wb_clk_i_X
*874 ANTENNA_clkbuf_3_4__f_wb_clk_i_A
*875 ANTENNA_clkbuf_3_5__f_wb_clk_i_A
*876 ANTENNA_clkbuf_3_6__f_wb_clk_i_A
*877 ANTENNA_clkbuf_3_6__f_wb_clk_i_X
*878 ANTENNA_clkbuf_3_7__f_wb_clk_i_A
*879 ANTENNA_clkbuf_3_7__f_wb_clk_i_X
*880 ANTENNA_clkload0_A
*881 ANTENNA_clkload2_A
*882 ANTENNA_clkload3_A
*883 ANTENNA_clkload5_A
*884 ANTENNA_clkload6_A
*885 ANTENNA_fanout60_A
*886 ANTENNA_fanout60_X
*887 ANTENNA_fanout61_A
*888 ANTENNA_fanout62_A
*889 ANTENNA_fanout62_X
*890 ANTENNA_fanout63_A
*891 ANTENNA_fanout63_X
*892 ANTENNA_fanout64_A
*893 ANTENNA_fanout64_X
*894 ANTENNA_fanout65_A
*895 ANTENNA_fanout65_X
*896 ANTENNA_hold19_X
*897 ANTENNA_hold20_X
*898 ANTENNA_hold43_A
*899 ANTENNA_hold44_A
*900 ANTENNA_hold5_X
*901 ANTENNA_hold64_A
*902 ANTENNA_input10_A
*903 ANTENNA_input11_A
*904 ANTENNA_input12_A
*905 ANTENNA_input13_A
*906 ANTENNA_input13_X
*907 ANTENNA_input14_A
*908 ANTENNA_input15_A
*909 ANTENNA_input16_A
*910 ANTENNA_input17_A
*911 ANTENNA_input18_A
*912 ANTENNA_input19_A
*913 ANTENNA_input1_A
*914 ANTENNA_input20_A
*915 ANTENNA_input21_A
*916 ANTENNA_input22_A
*917 ANTENNA_input23_A
*918 ANTENNA_input24_A
*919 ANTENNA_input25_A
*920 ANTENNA_input26_A
*921 ANTENNA_input27_A
*922 ANTENNA_input28_A
*923 ANTENNA_input29_A
*924 ANTENNA_input2_A
*925 ANTENNA_input30_A
*926 ANTENNA_input30_X
*927 ANTENNA_input31_A
*928 ANTENNA_input31_X
*929 ANTENNA_input32_A
*930 ANTENNA_input32_X
*931 ANTENNA_input33_A
*932 ANTENNA_input34_A
*933 ANTENNA_input34_X
*934 ANTENNA_input35_A
*935 ANTENNA_input35_X
*936 ANTENNA_input36_A
*937 ANTENNA_input37_A
*938 ANTENNA_input38_A
*939 ANTENNA_input39_A
*940 ANTENNA_input3_A
*941 ANTENNA_input3_X
*942 ANTENNA_input40_A
*943 ANTENNA_input4_A
*944 ANTENNA_input5_A
*945 ANTENNA_input6_A
*946 ANTENNA_input7_A
*947 ANTENNA_input8_A
*948 ANTENNA_input9_A
*949 ANTENNA_max_cap59_X
*950 ANTENNA_output50_A
*951 FILLER_0_109
*952 FILLER_0_111
*953 FILLER_0_113
*954 FILLER_0_125
*955 FILLER_0_133
*956 FILLER_0_135
*957 FILLER_0_139
*958 FILLER_0_141
*959 FILLER_0_15
*960 FILLER_0_153
*961 FILLER_0_165
*962 FILLER_0_167
*963 FILLER_0_169
*964 FILLER_0_181
*965 FILLER_0_189
*966 FILLER_0_191
*967 FILLER_0_195
*968 FILLER_0_197
*969 FILLER_0_200
*970 FILLER_0_212
*971 FILLER_0_225
*972 FILLER_0_237
*973 FILLER_0_249
*974 FILLER_0_251
*975 FILLER_0_253
*976 FILLER_0_258
*977 FILLER_0_265
*978 FILLER_0_27
*979 FILLER_0_272
*980 FILLER_0_279
*981 FILLER_0_281
*982 FILLER_0_286
*983 FILLER_0_29
*984 FILLER_0_290
*985 FILLER_0_294
*986 FILLER_0_296
*987 FILLER_0_3
*988 FILLER_0_301
*989 FILLER_0_305
*990 FILLER_0_307
*991 FILLER_0_309
*992 FILLER_0_317
*993 FILLER_0_322
*994 FILLER_0_324
*995 FILLER_0_335
*996 FILLER_0_337
*997 FILLER_0_342
*998 FILLER_0_356
*999 FILLER_0_362
*1000 FILLER_0_365
*1001 FILLER_0_377
*1002 FILLER_0_385
*1003 FILLER_0_389
*1004 FILLER_0_391
*1005 FILLER_0_393
*1006 FILLER_0_396
*1007 FILLER_0_408
*1008 FILLER_0_41
*1009 FILLER_0_421
*1010 FILLER_0_433
*1011 FILLER_0_445
*1012 FILLER_0_447
*1013 FILLER_0_449
*1014 FILLER_0_457
*1015 FILLER_0_461
*1016 FILLER_0_473
*1017 FILLER_0_475
*1018 FILLER_0_477
*1019 FILLER_0_489
*1020 FILLER_0_501
*1021 FILLER_0_503
*1022 FILLER_0_505
*1023 FILLER_0_517
*1024 FILLER_0_524
*1025 FILLER_0_53
*1026 FILLER_0_533
*1027 FILLER_0_545
*1028 FILLER_0_55
*1029 FILLER_0_557
*1030 FILLER_0_559
*1031 FILLER_0_561
*1032 FILLER_0_57
*1033 FILLER_0_573
*1034 FILLER_0_585
*1035 FILLER_0_587
*1036 FILLER_0_589
*1037 FILLER_0_601
*1038 FILLER_0_613
*1039 FILLER_0_615
*1040 FILLER_0_617
*1041 FILLER_0_69
*1042 FILLER_0_81
*1043 FILLER_0_83
*1044 FILLER_0_85
*1045 FILLER_0_97
*1046 FILLER_100_109
*1047 FILLER_100_121
*1048 FILLER_100_133
*1049 FILLER_100_137
*1050 FILLER_100_139
*1051 FILLER_100_141
*1052 FILLER_100_15
*1053 FILLER_100_153
*1054 FILLER_100_165
*1055 FILLER_100_177
*1056 FILLER_100_189
*1057 FILLER_100_193
*1058 FILLER_100_195
*1059 FILLER_100_197
*1060 FILLER_100_209
*1061 FILLER_100_221
*1062 FILLER_100_233
*1063 FILLER_100_245
*1064 FILLER_100_249
*1065 FILLER_100_251
*1066 FILLER_100_253
*1067 FILLER_100_265
*1068 FILLER_100_27
*1069 FILLER_100_277
*1070 FILLER_100_289
*1071 FILLER_100_29
*1072 FILLER_100_296
*1073 FILLER_100_3
*1074 FILLER_100_300
*1075 FILLER_100_309
*1076 FILLER_100_313
*1077 FILLER_100_315
*1078 FILLER_100_318
*1079 FILLER_100_332
*1080 FILLER_100_336
*1081 FILLER_100_341
*1082 FILLER_100_345
*1083 FILLER_100_349
*1084 FILLER_100_361
*1085 FILLER_100_363
*1086 FILLER_100_365
*1087 FILLER_100_367
*1088 FILLER_100_370
*1089 FILLER_100_375
*1090 FILLER_100_385
*1091 FILLER_100_397
*1092 FILLER_100_409
*1093 FILLER_100_41
*1094 FILLER_100_417
*1095 FILLER_100_419
*1096 FILLER_100_421
*1097 FILLER_100_433
*1098 FILLER_100_445
*1099 FILLER_100_457
*1100 FILLER_100_469
*1101 FILLER_100_473
*1102 FILLER_100_475
*1103 FILLER_100_477
*1104 FILLER_100_489
*1105 FILLER_100_501
*1106 FILLER_100_513
*1107 FILLER_100_525
*1108 FILLER_100_529
*1109 FILLER_100_53
*1110 FILLER_100_531
*1111 FILLER_100_533
*1112 FILLER_100_545
*1113 FILLER_100_557
*1114 FILLER_100_569
*1115 FILLER_100_581
*1116 FILLER_100_585
*1117 FILLER_100_587
*1118 FILLER_100_589
*1119 FILLER_100_601
*1120 FILLER_100_613
*1121 FILLER_100_65
*1122 FILLER_100_77
*1123 FILLER_100_81
*1124 FILLER_100_83
*1125 FILLER_100_85
*1126 FILLER_100_97
*1127 FILLER_101_109
*1128 FILLER_101_111
*1129 FILLER_101_113
*1130 FILLER_101_125
*1131 FILLER_101_137
*1132 FILLER_101_139
*1133 FILLER_101_141
*1134 FILLER_101_15
*1135 FILLER_101_153
*1136 FILLER_101_165
*1137 FILLER_101_167
*1138 FILLER_101_169
*1139 FILLER_101_181
*1140 FILLER_101_193
*1141 FILLER_101_195
*1142 FILLER_101_197
*1143 FILLER_101_202
*1144 FILLER_101_214
*1145 FILLER_101_222
*1146 FILLER_101_225
*1147 FILLER_101_237
*1148 FILLER_101_249
*1149 FILLER_101_251
*1150 FILLER_101_253
*1151 FILLER_101_258
*1152 FILLER_101_262
*1153 FILLER_101_266
*1154 FILLER_101_268
*1155 FILLER_101_27
*1156 FILLER_101_272
*1157 FILLER_101_276
*1158 FILLER_101_281
*1159 FILLER_101_29
*1160 FILLER_101_293
*1161 FILLER_101_3
*1162 FILLER_101_300
*1163 FILLER_101_304
*1164 FILLER_101_309
*1165 FILLER_101_314
*1166 FILLER_101_321
*1167 FILLER_101_329
*1168 FILLER_101_331
*1169 FILLER_101_335
*1170 FILLER_101_337
*1171 FILLER_101_343
*1172 FILLER_101_345
*1173 FILLER_101_350
*1174 FILLER_101_352
*1175 FILLER_101_356
*1176 FILLER_101_360
*1177 FILLER_101_365
*1178 FILLER_101_369
*1179 FILLER_101_372
*1180 FILLER_101_377
*1181 FILLER_101_385
*1182 FILLER_101_389
*1183 FILLER_101_391
*1184 FILLER_101_393
*1185 FILLER_101_401
*1186 FILLER_101_405
*1187 FILLER_101_409
*1188 FILLER_101_41
*1189 FILLER_101_417
*1190 FILLER_101_419
*1191 FILLER_101_421
*1192 FILLER_101_429
*1193 FILLER_101_434
*1194 FILLER_101_446
*1195 FILLER_101_449
*1196 FILLER_101_461
*1197 FILLER_101_473
*1198 FILLER_101_475
*1199 FILLER_101_477
*1200 FILLER_101_489
*1201 FILLER_101_501
*1202 FILLER_101_503
*1203 FILLER_101_505
*1204 FILLER_101_517
*1205 FILLER_101_529
*1206 FILLER_101_53
*1207 FILLER_101_531
*1208 FILLER_101_533
*1209 FILLER_101_541
*1210 FILLER_101_545
*1211 FILLER_101_55
*1212 FILLER_101_557
*1213 FILLER_101_559
*1214 FILLER_101_561
*1215 FILLER_101_57
*1216 FILLER_101_573
*1217 FILLER_101_585
*1218 FILLER_101_587
*1219 FILLER_101_589
*1220 FILLER_101_601
*1221 FILLER_101_613
*1222 FILLER_101_615
*1223 FILLER_101_617
*1224 FILLER_101_69
*1225 FILLER_101_81
*1226 FILLER_101_83
*1227 FILLER_101_85
*1228 FILLER_101_97
*1229 FILLER_10_109
*1230 FILLER_10_121
*1231 FILLER_10_133
*1232 FILLER_10_137
*1233 FILLER_10_139
*1234 FILLER_10_141
*1235 FILLER_10_15
*1236 FILLER_10_153
*1237 FILLER_10_165
*1238 FILLER_10_177
*1239 FILLER_10_189
*1240 FILLER_10_193
*1241 FILLER_10_195
*1242 FILLER_10_197
*1243 FILLER_10_209
*1244 FILLER_10_221
*1245 FILLER_10_233
*1246 FILLER_10_245
*1247 FILLER_10_249
*1248 FILLER_10_251
*1249 FILLER_10_253
*1250 FILLER_10_265
*1251 FILLER_10_27
*1252 FILLER_10_277
*1253 FILLER_10_289
*1254 FILLER_10_29
*1255 FILLER_10_3
*1256 FILLER_10_301
*1257 FILLER_10_305
*1258 FILLER_10_307
*1259 FILLER_10_309
*1260 FILLER_10_321
*1261 FILLER_10_333
*1262 FILLER_10_345
*1263 FILLER_10_357
*1264 FILLER_10_361
*1265 FILLER_10_363
*1266 FILLER_10_365
*1267 FILLER_10_377
*1268 FILLER_10_389
*1269 FILLER_10_401
*1270 FILLER_10_41
*1271 FILLER_10_413
*1272 FILLER_10_417
*1273 FILLER_10_419
*1274 FILLER_10_421
*1275 FILLER_10_433
*1276 FILLER_10_445
*1277 FILLER_10_457
*1278 FILLER_10_469
*1279 FILLER_10_473
*1280 FILLER_10_475
*1281 FILLER_10_477
*1282 FILLER_10_489
*1283 FILLER_10_501
*1284 FILLER_10_513
*1285 FILLER_10_525
*1286 FILLER_10_529
*1287 FILLER_10_53
*1288 FILLER_10_531
*1289 FILLER_10_533
*1290 FILLER_10_545
*1291 FILLER_10_557
*1292 FILLER_10_569
*1293 FILLER_10_581
*1294 FILLER_10_585
*1295 FILLER_10_587
*1296 FILLER_10_589
*1297 FILLER_10_601
*1298 FILLER_10_613
*1299 FILLER_10_65
*1300 FILLER_10_77
*1301 FILLER_10_81
*1302 FILLER_10_83
*1303 FILLER_10_85
*1304 FILLER_10_97
*1305 FILLER_11_105
*1306 FILLER_11_109
*1307 FILLER_11_111
*1308 FILLER_11_113
*1309 FILLER_11_125
*1310 FILLER_11_137
*1311 FILLER_11_149
*1312 FILLER_11_15
*1313 FILLER_11_161
*1314 FILLER_11_165
*1315 FILLER_11_167
*1316 FILLER_11_169
*1317 FILLER_11_181
*1318 FILLER_11_193
*1319 FILLER_11_205
*1320 FILLER_11_217
*1321 FILLER_11_221
*1322 FILLER_11_223
*1323 FILLER_11_225
*1324 FILLER_11_237
*1325 FILLER_11_249
*1326 FILLER_11_261
*1327 FILLER_11_27
*1328 FILLER_11_273
*1329 FILLER_11_277
*1330 FILLER_11_279
*1331 FILLER_11_281
*1332 FILLER_11_293
*1333 FILLER_11_3
*1334 FILLER_11_305
*1335 FILLER_11_317
*1336 FILLER_11_329
*1337 FILLER_11_333
*1338 FILLER_11_335
*1339 FILLER_11_337
*1340 FILLER_11_349
*1341 FILLER_11_361
*1342 FILLER_11_373
*1343 FILLER_11_385
*1344 FILLER_11_389
*1345 FILLER_11_39
*1346 FILLER_11_391
*1347 FILLER_11_393
*1348 FILLER_11_405
*1349 FILLER_11_417
*1350 FILLER_11_429
*1351 FILLER_11_441
*1352 FILLER_11_445
*1353 FILLER_11_447
*1354 FILLER_11_449
*1355 FILLER_11_461
*1356 FILLER_11_473
*1357 FILLER_11_485
*1358 FILLER_11_497
*1359 FILLER_11_501
*1360 FILLER_11_503
*1361 FILLER_11_505
*1362 FILLER_11_51
*1363 FILLER_11_517
*1364 FILLER_11_529
*1365 FILLER_11_541
*1366 FILLER_11_55
*1367 FILLER_11_553
*1368 FILLER_11_557
*1369 FILLER_11_559
*1370 FILLER_11_561
*1371 FILLER_11_57
*1372 FILLER_11_573
*1373 FILLER_11_585
*1374 FILLER_11_597
*1375 FILLER_11_609
*1376 FILLER_11_613
*1377 FILLER_11_615
*1378 FILLER_11_617
*1379 FILLER_11_69
*1380 FILLER_11_81
*1381 FILLER_11_93
*1382 FILLER_12_109
*1383 FILLER_12_121
*1384 FILLER_12_133
*1385 FILLER_12_137
*1386 FILLER_12_139
*1387 FILLER_12_141
*1388 FILLER_12_15
*1389 FILLER_12_153
*1390 FILLER_12_165
*1391 FILLER_12_177
*1392 FILLER_12_189
*1393 FILLER_12_193
*1394 FILLER_12_195
*1395 FILLER_12_197
*1396 FILLER_12_209
*1397 FILLER_12_221
*1398 FILLER_12_233
*1399 FILLER_12_245
*1400 FILLER_12_249
*1401 FILLER_12_251
*1402 FILLER_12_253
*1403 FILLER_12_265
*1404 FILLER_12_27
*1405 FILLER_12_277
*1406 FILLER_12_289
*1407 FILLER_12_29
*1408 FILLER_12_3
*1409 FILLER_12_301
*1410 FILLER_12_305
*1411 FILLER_12_307
*1412 FILLER_12_309
*1413 FILLER_12_321
*1414 FILLER_12_333
*1415 FILLER_12_345
*1416 FILLER_12_357
*1417 FILLER_12_361
*1418 FILLER_12_363
*1419 FILLER_12_365
*1420 FILLER_12_377
*1421 FILLER_12_389
*1422 FILLER_12_401
*1423 FILLER_12_41
*1424 FILLER_12_413
*1425 FILLER_12_417
*1426 FILLER_12_419
*1427 FILLER_12_421
*1428 FILLER_12_433
*1429 FILLER_12_445
*1430 FILLER_12_457
*1431 FILLER_12_469
*1432 FILLER_12_473
*1433 FILLER_12_475
*1434 FILLER_12_477
*1435 FILLER_12_489
*1436 FILLER_12_501
*1437 FILLER_12_513
*1438 FILLER_12_525
*1439 FILLER_12_529
*1440 FILLER_12_53
*1441 FILLER_12_531
*1442 FILLER_12_533
*1443 FILLER_12_545
*1444 FILLER_12_557
*1445 FILLER_12_569
*1446 FILLER_12_581
*1447 FILLER_12_585
*1448 FILLER_12_587
*1449 FILLER_12_589
*1450 FILLER_12_601
*1451 FILLER_12_613
*1452 FILLER_12_65
*1453 FILLER_12_77
*1454 FILLER_12_81
*1455 FILLER_12_83
*1456 FILLER_12_85
*1457 FILLER_12_97
*1458 FILLER_13_105
*1459 FILLER_13_109
*1460 FILLER_13_111
*1461 FILLER_13_113
*1462 FILLER_13_125
*1463 FILLER_13_137
*1464 FILLER_13_149
*1465 FILLER_13_15
*1466 FILLER_13_161
*1467 FILLER_13_165
*1468 FILLER_13_167
*1469 FILLER_13_169
*1470 FILLER_13_181
*1471 FILLER_13_193
*1472 FILLER_13_205
*1473 FILLER_13_217
*1474 FILLER_13_221
*1475 FILLER_13_223
*1476 FILLER_13_225
*1477 FILLER_13_237
*1478 FILLER_13_249
*1479 FILLER_13_261
*1480 FILLER_13_27
*1481 FILLER_13_273
*1482 FILLER_13_277
*1483 FILLER_13_279
*1484 FILLER_13_281
*1485 FILLER_13_293
*1486 FILLER_13_3
*1487 FILLER_13_305
*1488 FILLER_13_317
*1489 FILLER_13_329
*1490 FILLER_13_333
*1491 FILLER_13_335
*1492 FILLER_13_337
*1493 FILLER_13_349
*1494 FILLER_13_361
*1495 FILLER_13_373
*1496 FILLER_13_385
*1497 FILLER_13_389
*1498 FILLER_13_39
*1499 FILLER_13_391
*1500 FILLER_13_393
*1501 FILLER_13_405
*1502 FILLER_13_417
*1503 FILLER_13_429
*1504 FILLER_13_441
*1505 FILLER_13_445
*1506 FILLER_13_447
*1507 FILLER_13_449
*1508 FILLER_13_461
*1509 FILLER_13_473
*1510 FILLER_13_485
*1511 FILLER_13_497
*1512 FILLER_13_501
*1513 FILLER_13_503
*1514 FILLER_13_505
*1515 FILLER_13_51
*1516 FILLER_13_517
*1517 FILLER_13_529
*1518 FILLER_13_541
*1519 FILLER_13_55
*1520 FILLER_13_553
*1521 FILLER_13_557
*1522 FILLER_13_559
*1523 FILLER_13_561
*1524 FILLER_13_57
*1525 FILLER_13_573
*1526 FILLER_13_585
*1527 FILLER_13_597
*1528 FILLER_13_609
*1529 FILLER_13_613
*1530 FILLER_13_615
*1531 FILLER_13_617
*1532 FILLER_13_69
*1533 FILLER_13_81
*1534 FILLER_13_93
*1535 FILLER_14_109
*1536 FILLER_14_121
*1537 FILLER_14_133
*1538 FILLER_14_137
*1539 FILLER_14_139
*1540 FILLER_14_141
*1541 FILLER_14_15
*1542 FILLER_14_153
*1543 FILLER_14_165
*1544 FILLER_14_177
*1545 FILLER_14_189
*1546 FILLER_14_193
*1547 FILLER_14_195
*1548 FILLER_14_197
*1549 FILLER_14_209
*1550 FILLER_14_221
*1551 FILLER_14_233
*1552 FILLER_14_245
*1553 FILLER_14_249
*1554 FILLER_14_251
*1555 FILLER_14_253
*1556 FILLER_14_265
*1557 FILLER_14_27
*1558 FILLER_14_277
*1559 FILLER_14_289
*1560 FILLER_14_29
*1561 FILLER_14_3
*1562 FILLER_14_301
*1563 FILLER_14_305
*1564 FILLER_14_307
*1565 FILLER_14_309
*1566 FILLER_14_321
*1567 FILLER_14_333
*1568 FILLER_14_345
*1569 FILLER_14_357
*1570 FILLER_14_361
*1571 FILLER_14_363
*1572 FILLER_14_365
*1573 FILLER_14_377
*1574 FILLER_14_389
*1575 FILLER_14_401
*1576 FILLER_14_41
*1577 FILLER_14_413
*1578 FILLER_14_417
*1579 FILLER_14_419
*1580 FILLER_14_421
*1581 FILLER_14_433
*1582 FILLER_14_445
*1583 FILLER_14_457
*1584 FILLER_14_469
*1585 FILLER_14_473
*1586 FILLER_14_475
*1587 FILLER_14_477
*1588 FILLER_14_489
*1589 FILLER_14_501
*1590 FILLER_14_513
*1591 FILLER_14_525
*1592 FILLER_14_529
*1593 FILLER_14_53
*1594 FILLER_14_531
*1595 FILLER_14_533
*1596 FILLER_14_545
*1597 FILLER_14_557
*1598 FILLER_14_569
*1599 FILLER_14_581
*1600 FILLER_14_585
*1601 FILLER_14_587
*1602 FILLER_14_589
*1603 FILLER_14_601
*1604 FILLER_14_613
*1605 FILLER_14_624
*1606 FILLER_14_65
*1607 FILLER_14_77
*1608 FILLER_14_81
*1609 FILLER_14_83
*1610 FILLER_14_85
*1611 FILLER_14_97
*1612 FILLER_15_105
*1613 FILLER_15_109
*1614 FILLER_15_111
*1615 FILLER_15_113
*1616 FILLER_15_125
*1617 FILLER_15_137
*1618 FILLER_15_149
*1619 FILLER_15_15
*1620 FILLER_15_161
*1621 FILLER_15_165
*1622 FILLER_15_167
*1623 FILLER_15_169
*1624 FILLER_15_181