*SPEF "ieee 1481-1999"
*DESIGN "top_soc"
*DATE "16:35:13 Saturday May 02, 2026"
*VENDOR "The OpenROAD Project"
*PROGRAM "OpenROAD"
*VERSION "edf00dff99f6c40d67a30c0e22a8191c5d2ed9d6"
*DESIGN_FLOW "NAME_SCOPE LOCAL" "PIN_CAP NONE"
*DIVIDER /
*DELIMITER :
*BUS_DELIMITER []
*T_UNIT 1 NS
*C_UNIT 1 PF
*R_UNIT 1 OHM
*L_UNIT 1 HENRY

*NAME_MAP
*1 adc_data_in[0]
*2 adc_data_in[10]
*3 adc_data_in[11]
*4 adc_data_in[1]
*5 adc_data_in[2]
*6 adc_data_in[3]
*7 adc_data_in[4]
*8 adc_data_in[5]
*9 adc_data_in[6]
*10 adc_data_in[7]
*11 adc_data_in[8]
*12 adc_data_in[9]
*13 net250
*14 net260
*15 net261
*16 net262
*17 net263
*18 net264
*19 net265
*20 net266
*21 net267
*22 net268
*23 net269
*24 net251
*25 net270
*26 net271
*27 net272
*28 net273
*29 net274
*30 net275
*31 net276
*32 net277
*33 net278
*34 net279
*35 net252
*36 net280
*37 net281
*38 net282
*39 net283
*40 net284
*41 net285
*42 net286
*43 net287
*44 net253
*45 net254
*46 net255
*47 net256
*48 net257
*49 net258
*50 net259
*51 net66
*52 net76
*53 net77
*54 net78
*55 net79
*56 net80
*57 net81
*58 net82
*59 net83
*60 net84
*61 net85
*62 net67
*63 net86
*64 net87
*65 net88
*66 net89
*67 net90
*68 net91
*69 net92
*70 net93
*71 net94
*72 net95
*73 net68
*74 net96
*75 net97
*76 net98
*77 net99
*78 net100
*79 net101
*80 net102
*81 net103
*82 net69
*83 net70
*84 net71
*85 net72
*86 net73
*87 net74
*88 net75
*89 net104
*90 net204
*91 net205
*92 net206
*93 net207
*94 net208
*95 net209
*96 net210
*97 net211
*98 net212
*99 net213
*100 net114
*101 net214
*102 net215
*103 net216
*104 net217
*105 net218
*106 net219
*107 net220
*108 net221
*109 net222
*110 net223
*111 net115
*112 net224
*113 net225
*114 net226
*115 net227
*116 net228
*117 net229
*118 net230
*119 net231
*120 net116
*121 net117
*122 net118
*123 net119
*124 net120
*125 net121
*126 net122
*127 net123
*128 net105
*129 net124
*130 net125
*131 net126
*132 net127
*133 net128
*134 net129
*135 net130
*136 net131
*137 net132
*138 net133
*139 net106
*140 net134
*141 net135
*142 net136
*143 net137
*144 net138
*145 net139
*146 net140
*147 net141
*148 net142
*149 net143
*150 net107
*151 net144
*152 net145
*153 net146
*154 net147
*155 net148
*156 net149
*157 net150
*158 net151
*159 net152
*160 net153
*161 net108
*162 net154
*163 net155
*164 net156
*165 net157
*166 net158
*167 net159
*168 net160
*169 net161
*170 net162
*171 net163
*172 net109
*173 net164
*174 net165
*175 net166
*176 net167
*177 net168
*178 net169
*179 net170
*180 net171
*181 net172
*182 net173
*183 net110
*184 net174
*185 net175
*186 net176
*187 net177
*188 net178
*189 net179
*190 net180
*191 net181
*192 net182
*193 net183
*194 net111
*195 net184
*196 net185
*197 net186
*198 net187
*199 net188
*200 net189
*201 net190
*202 net191
*203 net192
*204 net193
*205 net112
*206 net194
*207 net195
*208 net196
*209 net197
*210 net198
*211 net199
*212 net200
*213 net201
*214 net202
*215 net203
*216 net113
*217 user_irq[0]
*218 net232
*219 net233
*222 wb_clk_i
*223 wb_rst_i
*224 wbs_ack_o
*225 wbs_adr_i[0]
*226 wbs_adr_i[10]
*227 wbs_adr_i[11]
*228 wbs_adr_i[12]
*229 wbs_adr_i[13]
*230 wbs_adr_i[14]
*231 wbs_adr_i[15]
*232 wbs_adr_i[16]
*233 wbs_adr_i[17]
*234 wbs_adr_i[18]
*235 wbs_adr_i[19]
*236 wbs_adr_i[1]
*237 wbs_adr_i[20]
*238 wbs_adr_i[21]
*239 wbs_adr_i[22]
*240 wbs_adr_i[23]
*241 wbs_adr_i[24]
*242 wbs_adr_i[25]
*243 wbs_adr_i[26]
*244 wbs_adr_i[27]
*245 wbs_adr_i[28]
*246 wbs_adr_i[29]
*247 wbs_adr_i[2]
*248 wbs_adr_i[30]
*249 wbs_adr_i[31]
*250 wbs_adr_i[3]
*251 wbs_adr_i[4]
*252 wbs_adr_i[5]
*253 wbs_adr_i[6]
*254 wbs_adr_i[7]
*255 wbs_adr_i[8]
*256 wbs_adr_i[9]
*257 wbs_cyc_i
*258 wbs_dat_i[0]
*259 wbs_dat_i[10]
*260 wbs_dat_i[11]
*261 wbs_dat_i[12]
*262 wbs_dat_i[13]
*263 wbs_dat_i[14]
*264 wbs_dat_i[15]
*265 wbs_dat_i[16]
*266 wbs_dat_i[17]
*267 wbs_dat_i[18]
*268 wbs_dat_i[19]
*269 wbs_dat_i[1]
*270 wbs_dat_i[20]
*271 wbs_dat_i[21]
*272 wbs_dat_i[22]
*273 wbs_dat_i[23]
*274 wbs_dat_i[24]
*275 wbs_dat_i[25]
*276 wbs_dat_i[26]
*277 wbs_dat_i[27]
*278 wbs_dat_i[28]
*279 wbs_dat_i[29]
*280 wbs_dat_i[2]
*281 wbs_dat_i[30]
*282 wbs_dat_i[31]
*283 wbs_dat_i[3]
*284 wbs_dat_i[4]
*285 wbs_dat_i[5]
*286 wbs_dat_i[6]
*287 wbs_dat_i[7]
*288 wbs_dat_i[8]
*289 wbs_dat_i[9]
*290 wbs_dat_o[0]
*291 wbs_dat_o[10]
*292 wbs_dat_o[11]
*293 wbs_dat_o[12]
*294 wbs_dat_o[13]
*295 wbs_dat_o[14]
*296 wbs_dat_o[15]
*297 net234
*298 net235
*299 net236
*300 net237
*301 wbs_dat_o[1]
*302 net238
*303 net239
*304 net240
*305 net241
*306 net242
*307 net243
*308 net244
*309 net245
*310 net246
*311 net247
*312 wbs_dat_o[2]
*313 net248
*314 net249
*315 wbs_dat_o[3]
*316 wbs_dat_o[4]
*317 wbs_dat_o[5]
*318 wbs_dat_o[6]
*319 wbs_dat_o[7]
*320 wbs_dat_o[8]
*321 wbs_dat_o[9]
*322 wbs_sel_i[0]
*323 wbs_sel_i[1]
*324 wbs_sel_i[2]
*325 wbs_sel_i[3]
*326 wbs_stb_i
*327 wbs_we_i
*328 _000_
*329 _001_
*330 _002_
*331 _003_
*332 _004_
*333 _005_
*334 _006_
*335 _007_
*336 _008_
*337 _009_
*338 _010_
*339 _011_
*340 _012_
*341 _013_
*342 _014_
*343 _015_
*344 _016_
*345 _017_
*346 _018_
*347 _019_
*348 _020_
*349 _021_
*350 _022_
*351 _023_
*352 _024_
*353 _025_
*354 _026_
*355 _027_
*356 _028_
*357 _029_
*358 _030_
*359 _031_
*360 _032_
*361 _033_
*362 _034_
*363 _035_
*364 _036_
*365 _037_
*366 _038_
*367 _039_
*368 _040_
*369 _041_
*370 _042_
*371 _043_
*372 _044_
*373 _045_
*374 _046_
*375 _047_
*376 _048_
*377 _049_
*378 _050_
*379 _051_
*380 _052_
*381 _053_
*382 _054_
*383 _055_
*384 _056_
*385 _057_
*386 _058_
*387 _059_
*388 _060_
*389 _061_
*390 _062_
*391 _063_
*392 _064_
*393 _065_
*394 _066_
*395 _067_
*396 _068_
*397 _069_
*398 _070_
*399 _071_
*400 _072_
*401 _073_
*402 _074_
*403 _075_
*404 _076_
*405 _077_
*406 _078_
*407 _079_
*408 _080_
*409 _081_
*410 _082_
*411 _083_
*412 _084_
*413 _085_
*414 _086_
*415 _087_
*416 _088_
*417 _089_
*418 _090_
*419 _091_
*420 _092_
*421 _093_
*422 _094_
*423 _095_
*424 _096_
*425 _097_
*426 _098_
*427 _099_
*428 _100_
*429 _101_
*430 _102_
*431 _103_
*432 _104_
*433 _105_
*434 _106_
*435 _107_
*436 _108_
*437 _109_
*438 _110_
*439 _111_
*440 _112_
*441 _113_
*442 _114_
*443 _115_
*444 _116_
*445 _117_
*446 _118_
*447 _119_
*448 _120_
*449 _121_
*450 _122_
*451 _123_
*452 _124_
*453 _125_
*454 _126_
*455 _127_
*456 _128_
*457 _129_
*458 _130_
*459 _131_
*460 _132_
*461 _133_
*462 _134_
*463 _135_
*464 _136_
*465 _137_
*466 _138_
*467 _139_
*468 _140_
*469 _141_
*470 _142_
*471 _143_
*472 _144_
*473 _145_
*474 _146_
*475 _147_
*476 _148_
*477 _149_
*478 _150_
*479 _151_
*480 _152_
*481 _153_
*482 _154_
*483 _155_
*484 _156_
*485 _157_
*486 _158_
*487 _159_
*488 _160_
*489 _161_
*490 _162_
*491 _163_
*492 _164_
*493 _165_
*494 _166_
*495 _167_
*496 _168_
*497 _169_
*498 _170_
*499 _171_
*500 _172_
*501 _173_
*502 _174_
*503 _175_
*504 _176_
*505 _177_
*506 _178_
*507 _179_
*508 _180_
*509 _181_
*510 _182_
*511 _183_
*512 _184_
*513 _185_
*514 _186_
*515 _187_
*516 _188_
*517 _189_
*518 _190_
*519 _191_
*520 _192_
*521 _193_
*522 _194_
*523 _195_
*524 _196_
*525 _197_
*526 _198_
*527 _199_
*528 _200_
*529 _201_
*530 _202_
*531 _203_
*532 _204_
*533 _205_
*534 _206_
*535 _207_
*536 _208_
*537 _209_
*538 _210_
*539 _211_
*540 _212_
*541 _213_
*542 _214_
*543 _215_
*544 _216_
*545 _217_
*546 _218_
*547 _219_
*548 _220_
*549 _221_
*550 _222_
*551 _223_
*552 _224_
*553 _225_
*554 _226_
*555 _227_
*556 _228_
*557 _229_
*558 _230_
*559 _231_
*560 _232_
*561 _233_
*562 _234_
*563 _235_
*564 _236_
*565 _237_
*566 _238_
*567 _239_
*568 _240_
*569 _241_
*570 _242_
*571 _243_
*572 _244_
*573 _245_
*574 _246_
*575 _247_
*576 _248_
*577 _249_
*578 _250_
*579 _251_
*580 _252_
*581 _253_
*582 _254_
*583 _255_
*584 _256_
*585 _257_
*586 _258_
*587 _259_
*588 adc_value_ext\[0\]
*589 adc_value_ext\[10\]
*590 adc_value_ext\[11\]
*591 adc_value_ext\[1\]
*592 adc_value_ext\[2\]
*593 adc_value_ext\[3\]
*594 adc_value_ext\[4\]
*595 adc_value_ext\[5\]
*596 adc_value_ext\[6\]
*597 adc_value_ext\[7\]
*598 adc_value_ext\[8\]
*599 adc_value_ext\[9\]
*600 clknet_0_wb_clk_i
*601 clknet_3_0__leaf_wb_clk_i
*602 clknet_3_1__leaf_wb_clk_i
*603 clknet_3_2__leaf_wb_clk_i
*604 clknet_3_3__leaf_wb_clk_i
*605 clknet_3_4__leaf_wb_clk_i
*606 clknet_3_5__leaf_wb_clk_i
*607 clknet_3_6__leaf_wb_clk_i
*608 clknet_3_7__leaf_wb_clk_i
*609 enable
*610 fault_flag
*611 fault_flags_bus\[1\]
*612 fault_flags_bus\[2\]
*613 fault_mask\[0\]
*614 fault_mask\[1\]
*615 fault_mask\[2\]
*616 fault_mask\[3\]
*617 fault_mask\[4\]
*618 fault_mask\[5\]
*619 fault_mask\[6\]
*620 fault_mask\[7\]
*621 irq
*622 net1
*623 net10
*624 net11
*625 net12
*626 net13
*627 net14
*628 net15
*629 net16
*630 net17
*631 net18
*632 net19
*633 net2
*634 net20
*635 net21
*636 net22
*637 net23
*638 net24
*639 net25
*640 net26
*641 net27
*642 net28
*643 net288
*644 net289
*645 net29
*646 net290
*647 net291
*648 net292
*649 net293
*650 net294
*651 net295
*652 net296
*653 net297
*654 net298
*655 net299
*656 net3
*657 net30
*658 net300
*659 net301
*660 net302
*661 net303
*662 net304
*663 net305
*664 net306
*665 net307
*666 net308
*667 net309
*668 net31
*669 net310
*670 net311
*671 net312
*672 net313
*673 net314
*674 net315
*675 net316
*676 net317
*677 net318
*678 net319
*679 net32
*680 net320
*681 net321
*682 net322
*683 net323
*684 net324
*685 net325
*686 net326
*687 net327
*688 net328
*689 net329
*690 net33
*691 net330
*692 net331
*693 net332
*694 net333
*695 net334
*696 net335
*697 net336
*698 net337
*699 net338
*700 net339
*701 net34
*702 net340
*703 net341
*704 net342
*705 net343
*706 net344
*707 net345
*708 net346
*709 net347
*710 net348
*711 net349
*712 net35
*713 net350
*714 net351
*715 net352
*716 net353
*717 net354
*718 net355
*719 net356
*720 net357
*721 net358
*722 net359
*723 net36
*724 net360
*725 net361
*726 net362
*727 net363
*728 net364
*729 net365
*730 net366
*731 net367
*732 net368
*733 net369
*734 net37
*735 net370
*736 net371
*737 net372
*738 net373
*739 net374
*740 net375
*741 net376
*742 net377
*743 net378
*744 net38
*745 net39
*746 net4
*747 net40
*748 net41
*749 net42
*750 net43
*751 net44
*752 net45
*753 net46
*754 net47
*755 net48
*756 net49
*757 net5
*758 net50
*759 net51
*760 net52
*761 net53
*762 net54
*763 net55
*764 net56
*765 net57
*766 net58
*767 net59
*768 net6
*769 net60
*770 net61
*771 net62
*772 net63
*773 net64
*774 net65
*775 net7
*776 net8
*777 net9
*778 threshold\[0\]
*779 threshold\[10\]
*780 threshold\[11\]
*781 threshold\[12\]
*782 threshold\[13\]
*783 threshold\[14\]
*784 threshold\[15\]
*785 threshold\[1\]
*786 threshold\[2\]
*787 threshold\[3\]
*788 threshold\[4\]
*789 threshold\[5\]
*790 threshold\[6\]
*791 threshold\[7\]
*792 threshold\[8\]
*793 threshold\[9\]
*794 u_fault\.fault_detected_comb
*795 u_fault\.prev_sample\[0\]
*796 u_fault\.prev_sample\[10\]
*797 u_fault\.prev_sample\[11\]
*798 u_fault\.prev_sample\[1\]
*799 u_fault\.prev_sample\[2\]
*800 u_fault\.prev_sample\[3\]
*801 u_fault\.prev_sample\[4\]
*802 u_fault\.prev_sample\[5\]
*803 u_fault\.prev_sample\[6\]
*804 u_fault\.prev_sample\[7\]
*805 u_fault\.prev_sample\[8\]
*806 u_fault\.prev_sample\[9\]
*807 u_regs\.irq_latched\[0\]
*808 u_regs\.irq_latched\[1\]
*809 u_regs\.irq_latched\[2\]
*810 u_regs\.irq_latched\[3\]
*811 u_regs\.irq_latched\[4\]
*812 u_regs\.irq_latched\[5\]
*813 u_regs\.irq_latched\[6\]
*814 u_regs\.irq_latched\[7\]
*815 u_regs\.irq_next\[0\]
*816 u_regs\.irq_next\[1\]
*817 u_regs\.irq_next\[2\]
*818 u_regs\.irq_next\[3\]
*819 u_regs\.irq_next\[4\]
*820 u_regs\.irq_next\[5\]
*821 u_regs\.irq_next\[6\]
*822 u_regs\.irq_next\[7\]
*823 u_regs\.prev_fault_flags\[0\]
*824 u_regs\.prev_fault_flags\[1\]
*825 u_regs\.prev_fault_flags\[2\]
*826 ANTENNA_1
*827 ANTENNA__260__A
*828 ANTENNA__263__A
*829 ANTENNA__264__A
*830 ANTENNA__264__B
*831 ANTENNA__266__A
*832 ANTENNA__266__B
*833 ANTENNA__266__C
*834 ANTENNA__270__C
*835 ANTENNA__271__A
*836 ANTENNA__271__X
*837 ANTENNA__272__B
*838 ANTENNA__272__Y
*839 ANTENNA__273__A
*840 ANTENNA__274__S
*841 ANTENNA__275__S
*842 ANTENNA__276__S
*843 ANTENNA__277__S
*844 ANTENNA__278__S
*845 ANTENNA__279__S
*846 ANTENNA__280__A0
*847 ANTENNA__280__S
*848 ANTENNA__281__S
*849 ANTENNA__282__A0
*850 ANTENNA__282__S
*851 ANTENNA__283__A0
*852 ANTENNA__283__S
*853 ANTENNA__284__A0
*854 ANTENNA__284__S
*855 ANTENNA__285__A0
*856 ANTENNA__285__S
*857 ANTENNA__286__A0
*858 ANTENNA__286__S
*859 ANTENNA__287__A0
*860 ANTENNA__287__S
*861 ANTENNA__288__A0
*862 ANTENNA__288__S
*863 ANTENNA__289__A0
*864 ANTENNA__289__S
*865 ANTENNA__290__A_N
*866 ANTENNA__290__X
*867 ANTENNA__291__B
*868 ANTENNA__291__Y
*869 ANTENNA__292__A0
*870 ANTENNA__292__S
*871 ANTENNA__293__A0
*872 ANTENNA__293__S
*873 ANTENNA__294__A0
*874 ANTENNA__294__S
*875 ANTENNA__295__A0
*876 ANTENNA__295__S
*877 ANTENNA__296__A0
*878 ANTENNA__296__S
*879 ANTENNA__297__A0
*880 ANTENNA__297__S
*881 ANTENNA__298__A0
*882 ANTENNA__298__S
*883 ANTENNA__299__A0
*884 ANTENNA__299__S
*885 ANTENNA__300__B
*886 ANTENNA__301__A0
*887 ANTENNA__302__A
*888 ANTENNA__302__Y
*889 ANTENNA__303__A
*890 ANTENNA__303__X
*891 ANTENNA__304__A
*892 ANTENNA__304__B
*893 ANTENNA__304__X
*894 ANTENNA__305__A2
*895 ANTENNA__305__B1
*896 ANTENNA__306__A2
*897 ANTENNA__306__B1
*898 ANTENNA__307__A2
*899 ANTENNA__307__B1
*900 ANTENNA__308__A1
*901 ANTENNA__308__A2
*902 ANTENNA__308__B1
*903 ANTENNA__309__B
*904 ANTENNA__310__A
*905 ANTENNA__311__B
*906 ANTENNA__311__C
*907 ANTENNA__312__A2
*908 ANTENNA__312__B1
*909 ANTENNA__313__A
*910 ANTENNA__313__B
*911 ANTENNA__313__C
*912 ANTENNA__314__A2
*913 ANTENNA__314__B1
*914 ANTENNA__315__A
*915 ANTENNA__315__B
*916 ANTENNA__315__C
*917 ANTENNA__316__A2
*918 ANTENNA__316__B1
*919 ANTENNA__317__B
*920 ANTENNA__317__C
*921 ANTENNA__318__A2
*922 ANTENNA__318__B1
*923 ANTENNA__318__B2
*924 ANTENNA__319__A2
*925 ANTENNA__319__B1
*926 ANTENNA__319__B2
*927 ANTENNA__319__C1
*928 ANTENNA__320__B
*929 ANTENNA__320__X
*930 ANTENNA__321__A2
*931 ANTENNA__321__B1
*932 ANTENNA__322__A2
*933 ANTENNA__323__A2
*934 ANTENNA__323__B1
*935 ANTENNA__324__A2
*936 ANTENNA__324__B1
*937 ANTENNA__324__B2
*938 ANTENNA__324__C1
*939 ANTENNA__325__A2
*940 ANTENNA__326__A2
*941 ANTENNA__326__B2
*942 ANTENNA__326__C1
*943 ANTENNA__327__A2
*944 ANTENNA__327__B1
*945 ANTENNA__328__A2
*946 ANTENNA__329__A2
*947 ANTENNA__329__B2
*948 ANTENNA__329__C1
*949 ANTENNA__330__A2
*950 ANTENNA__330__B1
*951 ANTENNA__331__A2
*952 ANTENNA__332__A2
*953 ANTENNA__332__B1
*954 ANTENNA__333__A2
*955 ANTENNA__333__B1
*956 ANTENNA__333__C1
*957 ANTENNA__334__A2
*958 ANTENNA__335__A2
*959 ANTENNA__335__B1
*960 ANTENNA__335__B2
*961 ANTENNA__335__C1
*962 ANTENNA__336__A2
*963 ANTENNA__336__B1
*964 ANTENNA__337__A2
*965 ANTENNA__338__A2
*966 ANTENNA__338__B1
*967 ANTENNA__339__A2
*968 ANTENNA__339__B1
*969 ANTENNA__339__C1
*970 ANTENNA__340__A2
*971 ANTENNA__341__A_N
*972 ANTENNA__342__A1
*973 ANTENNA__342__B1
*974 ANTENNA__342__C1
*975 ANTENNA__343__A2
*976 ANTENNA__343__B1
*977 ANTENNA__344__A2
*978 ANTENNA__347__X
*979 ANTENNA__428__A1
*980 ANTENNA__428__B2
*981 ANTENNA__428__C1
*982 ANTENNA__429__A1
*983 ANTENNA__429__B1
*984 ANTENNA__431__A1
*985 ANTENNA__431__B1
*986 ANTENNA__431__C1
*987 ANTENNA__432__A1
*988 ANTENNA__432__A2
*989 ANTENNA__433__A
*990 ANTENNA__439__C
*991 ANTENNA__440__Y
*992 ANTENNA__441__A1_N
*993 ANTENNA__441__A2_N
*994 ANTENNA__442__C
*995 ANTENNA__443__A1_N
*996 ANTENNA__443__A2_N
*997 ANTENNA__444__C
*998 ANTENNA__445__A1_N
*999 ANTENNA__445__A2_N
*1000 ANTENNA__446__A1
*1001 ANTENNA__446__A2
*1002 ANTENNA__447__A1
*1003 ANTENNA__447__A2
*1004 ANTENNA__448__A1
*1005 ANTENNA__448__A2
*1006 ANTENNA__449__A1
*1007 ANTENNA__449__A2
*1008 ANTENNA__450__A1
*1009 ANTENNA__450__A2
*1010 ANTENNA__451__A
*1011 ANTENNA__452__A
*1012 ANTENNA__453__A
*1013 ANTENNA__454__A
*1014 ANTENNA__455__A
*1015 ANTENNA__456__A
*1016 ANTENNA__457__A
*1017 ANTENNA__458__A
*1018 ANTENNA__459__A
*1019 ANTENNA__460__A
*1020 ANTENNA__461__A
*1021 ANTENNA__462__A
*1022 ANTENNA__463__A
*1023 ANTENNA__464__A
*1024 ANTENNA__465__A
*1025 ANTENNA__466__A
*1026 ANTENNA__467__A
*1027 ANTENNA__468__A
*1028 ANTENNA__469__A
*1029 ANTENNA__470__A
*1030 ANTENNA__471__A
*1031 ANTENNA__472__A
*1032 ANTENNA__473__A
*1033 ANTENNA__474__A
*1034 ANTENNA__475__A
*1035 ANTENNA__476__A
*1036 ANTENNA__477__A
*1037 ANTENNA__478__A
*1038 ANTENNA__479__A
*1039 ANTENNA__480__A
*1040 ANTENNA__481__A
*1041 ANTENNA__482__A
*1042 ANTENNA__483__A
*1043 ANTENNA__484__A
*1044 ANTENNA__485__A
*1045 ANTENNA__486__A
*1046 ANTENNA__487__A
*1047 ANTENNA__488__A
*1048 ANTENNA__489__A
*1049 ANTENNA__490__A
*1050 ANTENNA__491__A
*1051 ANTENNA__492__A
*1052 ANTENNA__493__A
*1053 ANTENNA__494__A
*1054 ANTENNA__495__A
*1055 ANTENNA__496__A
*1056 ANTENNA__497__A
*1057 ANTENNA__498__A
*1058 ANTENNA__499__A
*1059 ANTENNA__500__A
*1060 ANTENNA__501__A
*1061 ANTENNA__502__A
*1062 ANTENNA__503__A
*1063 ANTENNA__504__A
*1064 ANTENNA__505__A
*1065 ANTENNA__506__A
*1066 ANTENNA__507__A
*1067 ANTENNA__508__A
*1068 ANTENNA__509__A
*1069 ANTENNA__510__A
*1070 ANTENNA__511__A
*1071 ANTENNA__512__A
*1072 ANTENNA__513__A
*1073 ANTENNA__514__A
*1074 ANTENNA__515__A
*1075 ANTENNA__516__A
*1076 ANTENNA__517__A
*1077 ANTENNA__518__A
*1078 ANTENNA__519__A
*1079 ANTENNA__520__A
*1080 ANTENNA__521__A
*1081 ANTENNA__522__A
*1082 ANTENNA__523__A
*1083 ANTENNA__524__A
*1084 ANTENNA__525__A
*1085 ANTENNA__526__A
*1086 ANTENNA__527__A
*1087 ANTENNA__528__A
*1088 ANTENNA__529__A
*1089 ANTENNA__530__CLK
*1090 ANTENNA__530__D
*1091 ANTENNA__531__CLK
*1092 ANTENNA__531__D
*1093 ANTENNA__532__CLK
*1094 ANTENNA__533__CLK
*1095 ANTENNA__534__CLK
*1096 ANTENNA__535__CLK
*1097 ANTENNA__536__CLK
*1098 ANTENNA__537__CLK
*1099 ANTENNA__538__CLK
*1100 ANTENNA__538__D
*1101 ANTENNA__539__CLK
*1102 ANTENNA__540__CLK
*1103 ANTENNA__540__Q
*1104 ANTENNA__541__CLK
*1105 ANTENNA__542__CLK
*1106 ANTENNA__543__CLK
*1107 ANTENNA__544__CLK
*1108 ANTENNA__545__CLK
*1109 ANTENNA__545__D
*1110 ANTENNA__546__CLK
*1111 ANTENNA__547__CLK
*1112 ANTENNA__547__D
*1113 ANTENNA__548__CLK
*1114 ANTENNA__549__CLK
*1115 ANTENNA__549__D
*1116 ANTENNA__550__CLK
*1117 ANTENNA__550__D
*1118 ANTENNA__551__CLK
*1119 ANTENNA__551__D
*1120 ANTENNA__552__CLK
*1121 ANTENNA__552__D
*1122 ANTENNA__553__CLK
*1123 ANTENNA__554__CLK
*1124 ANTENNA__554__D
*1125 ANTENNA__555__CLK
*1126 ANTENNA__556__CLK
*1127 ANTENNA__557__Q
*1128 ANTENNA__558__CLK
*1129 ANTENNA__558__Q
*1130 ANTENNA__559__CLK
*1131 ANTENNA__559__Q
*1132 ANTENNA__560__CLK
*1133 ANTENNA__560__Q
*1134 ANTENNA__561__Q
*1135 ANTENNA__562__Q
*1136 ANTENNA__563__CLK
*1137 ANTENNA__563__Q
*1138 ANTENNA__564__CLK
*1139 ANTENNA__564__Q
*1140 ANTENNA__565__CLK
*1141 ANTENNA__565__Q
*1142 ANTENNA__566__Q
*1143 ANTENNA__567__CLK
*1144 ANTENNA__569__CLK
*1145 ANTENNA__569__Q
*1146 ANTENNA__570__CLK
*1147 ANTENNA__571__CLK
*1148 ANTENNA__572__CLK
*1149 ANTENNA__573__Q
*1150 ANTENNA__574__CLK
*1151 ANTENNA__575__CLK
*1152 ANTENNA__576__CLK
*1153 ANTENNA__577__CLK
*1154 ANTENNA__580__CLK
*1155 ANTENNA__581__CLK
*1156 ANTENNA__582__CLK
*1157 ANTENNA__583__CLK
*1158 ANTENNA__584__CLK
*1159 ANTENNA__585__CLK
*1160 ANTENNA__588__CLK
*1161 ANTENNA__590__CLK
*1162 ANTENNA__591__CLK
*1163 ANTENNA__592__CLK
*1164 ANTENNA__593__CLK
*1165 ANTENNA__596__CLK
*1166 ANTENNA__598__CLK
*1167 ANTENNA__598__Q
*1168 ANTENNA__602__CLK
*1169 ANTENNA__603__CLK
*1170 ANTENNA__604__CLK
*1171 ANTENNA__605__CLK
*1172 ANTENNA__606__CLK
*1173 ANTENNA__607__CLK
*1174 ANTENNA__608__CLK
*1175 ANTENNA__609__CLK
*1176 ANTENNA__832__A
*1177 ANTENNA_clkbuf_0_wb_clk_i_A
*1178 ANTENNA_clkbuf_0_wb_clk_i_X
*1179 ANTENNA_clkbuf_3_0__f_wb_clk_i_A
*1180 ANTENNA_clkbuf_3_0__f_wb_clk_i_X
*1181 ANTENNA_clkbuf_3_1__f_wb_clk_i_A
*1182 ANTENNA_clkbuf_3_1__f_wb_clk_i_X
*1183 ANTENNA_clkbuf_3_2__f_wb_clk_i_A
*1184 ANTENNA_clkbuf_3_2__f_wb_clk_i_X
*1185 ANTENNA_clkbuf_3_3__f_wb_clk_i_A
*1186 ANTENNA_clkbuf_3_4__f_wb_clk_i_A
*1187 ANTENNA_clkbuf_3_4__f_wb_clk_i_X
*1188 ANTENNA_clkbuf_3_5__f_wb_clk_i_A
*1189 ANTENNA_clkbuf_3_6__f_wb_clk_i_A
*1190 ANTENNA_clkbuf_3_6__f_wb_clk_i_X
*1191 ANTENNA_clkbuf_3_7__f_wb_clk_i_A
*1192 ANTENNA_clkbuf_3_7__f_wb_clk_i_X
*1193 ANTENNA_clkload0_A
*1194 ANTENNA_clkload1_A
*1195 ANTENNA_clkload2_A
*1196 ANTENNA_clkload5_A
*1197 ANTENNA_clkload6_A
*1198 ANTENNA_fanout60_A
*1199 ANTENNA_fanout60_X
*1200 ANTENNA_fanout61_A
*1201 ANTENNA_fanout61_X
*1202 ANTENNA_fanout62_A
*1203 ANTENNA_fanout62_X
*1204 ANTENNA_fanout63_A
*1205 ANTENNA_fanout63_X
*1206 ANTENNA_fanout64_A
*1207 ANTENNA_fanout64_X
*1208 ANTENNA_fanout65_A
*1209 ANTENNA_fanout65_X
*1210 ANTENNA_hold12_X
*1211 ANTENNA_hold23_X
*1212 ANTENNA_hold26_X
*1213 ANTENNA_hold27_X
*1214 ANTENNA_hold32_A
*1215 ANTENNA_hold39_X
*1216 ANTENNA_hold44_X
*1217 ANTENNA_hold45_A
*1218 ANTENNA_hold47_A
*1219 ANTENNA_hold48_A
*1220 ANTENNA_hold50_A
*1221 ANTENNA_hold52_A
*1222 ANTENNA_hold54_A
*1223 ANTENNA_hold56_A
*1224 ANTENNA_hold58_A
*1225 ANTENNA_hold60_A
*1226 ANTENNA_hold62_A
*1227 ANTENNA_hold64_A
*1228 ANTENNA_hold6_X
*1229 ANTENNA_hold84_A
*1230 ANTENNA_input10_A
*1231 ANTENNA_input11_A
*1232 ANTENNA_input11_X
*1233 ANTENNA_input12_A
*1234 ANTENNA_input13_A
*1235 ANTENNA_input13_X
*1236 ANTENNA_input14_A
*1237 ANTENNA_input15_A
*1238 ANTENNA_input16_A
*1239 ANTENNA_input16_X
*1240 ANTENNA_input17_A
*1241 ANTENNA_input18_A
*1242 ANTENNA_input19_A
*1243 ANTENNA_input1_A
*1244 ANTENNA_input1_X
*1245 ANTENNA_input20_A
*1246 ANTENNA_input21_A
*1247 ANTENNA_input21_X
*1248 ANTENNA_input22_A
*1249 ANTENNA_input22_X
*1250 ANTENNA_input23_A
*1251 ANTENNA_input23_X
*1252 ANTENNA_input24_A
*1253 ANTENNA_input25_A
*1254 ANTENNA_input26_A
*1255 ANTENNA_input27_A
*1256 ANTENNA_input28_A
*1257 ANTENNA_input29_A
*1258 ANTENNA_input2_A
*1259 ANTENNA_input30_A
*1260 ANTENNA_input30_X
*1261 ANTENNA_input31_A
*1262 ANTENNA_input31_X
*1263 ANTENNA_input32_A
*1264 ANTENNA_input32_X
*1265 ANTENNA_input33_A
*1266 ANTENNA_input33_X
*1267 ANTENNA_input34_A
*1268 ANTENNA_input34_X
*1269 ANTENNA_input35_A
*1270 ANTENNA_input35_X
*1271 ANTENNA_input36_A
*1272 ANTENNA_input36_X
*1273 ANTENNA_input37_A
*1274 ANTENNA_input38_A
*1275 ANTENNA_input38_X
*1276 ANTENNA_input39_A
*1277 ANTENNA_input39_X
*1278 ANTENNA_input3_A
*1279 ANTENNA_input40_A
*1280 ANTENNA_input40_X
*1281 ANTENNA_input4_A
*1282 ANTENNA_input4_X
*1283 ANTENNA_input5_A
*1284 ANTENNA_input6_A
*1285 ANTENNA_input7_A
*1286 ANTENNA_input8_A
*1287 ANTENNA_input9_A
*1288 ANTENNA_max_cap59_X
*1289 ANTENNA_output43_A
*1290 ANTENNA_output46_A
*1291 ANTENNA_output50_A
*1292 ANTENNA_output51_A
*1293 ANTENNA_output52_A
*1294 ANTENNA_output53_A
*1295 ANTENNA_output54_A
*1296 ANTENNA_output55_A
*1297 ANTENNA_output56_A
*1298 ANTENNA_output57_A
*1299 ANTENNA_output58_A
*1300 FILLER_0_109
*1301 FILLER_0_111
*1302 FILLER_0_113
*1303 FILLER_0_125
*1304 FILLER_0_132
*1305 FILLER_0_141
*1306 FILLER_0_146
*1307 FILLER_0_15
*1308 FILLER_0_153
*1309 FILLER_0_160
*1310 FILLER_0_169
*1311 FILLER_0_177
*1312 FILLER_0_181
*1313 FILLER_0_188
*1314 FILLER_0_195
*1315 FILLER_0_197
*1316 FILLER_0_202
*1317 FILLER_0_209
*1318 FILLER_0_216
*1319 FILLER_0_223
*1320 FILLER_0_225
*1321 FILLER_0_230
*1322 FILLER_0_237
*1323 FILLER_0_244
*1324 FILLER_0_251
*1325 FILLER_0_253
*1326 FILLER_0_258
*1327 FILLER_0_265
*1328 FILLER_0_27
*1329 FILLER_0_272
*1330 FILLER_0_279
*1331 FILLER_0_281
*1332 FILLER_0_286
*1333 FILLER_0_29
*1334 FILLER_0_293
*1335 FILLER_0_3
*1336 FILLER_0_300
*1337 FILLER_0_302
*1338 FILLER_0_307
*1339 FILLER_0_309
*1340 FILLER_0_315
*1341 FILLER_0_317
*1342 FILLER_0_328
*1343 FILLER_0_333
*1344 FILLER_0_335
*1345 FILLER_0_337
*1346 FILLER_0_341
*1347 FILLER_0_345
*1348 FILLER_0_356
*1349 FILLER_0_362
*1350 FILLER_0_365
*1351 FILLER_0_369
*1352 FILLER_0_374
*1353 FILLER_0_379
*1354 FILLER_0_384
*1355 FILLER_0_391
*1356 FILLER_0_393
*1357 FILLER_0_398
*1358 FILLER_0_405
*1359 FILLER_0_41
*1360 FILLER_0_412
*1361 FILLER_0_419
*1362 FILLER_0_421
*1363 FILLER_0_426
*1364 FILLER_0_433
*1365 FILLER_0_440
*1366 FILLER_0_447
*1367 FILLER_0_449
*1368 FILLER_0_455
*1369 FILLER_0_457
*1370 FILLER_0_461
*1371 FILLER_0_469
*1372 FILLER_0_471
*1373 FILLER_0_475
*1374 FILLER_0_477
*1375 FILLER_0_482
*1376 FILLER_0_496
*1377 FILLER_0_501
*1378 FILLER_0_503
*1379 FILLER_0_505
*1380 FILLER_0_509
*1381 FILLER_0_514
*1382 FILLER_0_519
*1383 FILLER_0_524
*1384 FILLER_0_53
*1385 FILLER_0_533
*1386 FILLER_0_545
*1387 FILLER_0_55
*1388 FILLER_0_557
*1389 FILLER_0_559
*1390 FILLER_0_561
*1391 FILLER_0_57
*1392 FILLER_0_573
*1393 FILLER_0_585
*1394 FILLER_0_587
*1395 FILLER_0_589
*1396 FILLER_0_601
*1397 FILLER_0_605
*1398 FILLER_0_610
*1399 FILLER_0_615
*1400 FILLER_0_617
*1401 FILLER_0_619
*1402 FILLER_0_624
*1403 FILLER_0_69
*1404 FILLER_0_81
*1405 FILLER_0_83
*1406 FILLER_0_85
*1407 FILLER_0_97
*1408 FILLER_100_101
*1409 FILLER_100_103
*1410 FILLER_100_106
*1411 FILLER_100_118
*1412 FILLER_100_12
*1413 FILLER_100_130
*1414 FILLER_100_138
*1415 FILLER_100_141
*1416 FILLER_100_153
*1417 FILLER_100_165
*1418 FILLER_100_177
*1419 FILLER_100_189
*1420 FILLER_100_193
*1421 FILLER_100_195
*1422 FILLER_100_197
*1423 FILLER_100_209
*1424 FILLER_100_221
*1425 FILLER_100_225
*1426 FILLER_100_237
*1427 FILLER_100_24
*1428 FILLER_100_251
*1429 FILLER_100_253
*1430 FILLER_100_258
*1431 FILLER_100_268
*1432 FILLER_100_272
*1433 FILLER_100_275
*1434 FILLER_100_287
*1435 FILLER_100_29
*1436 FILLER_100_299
*1437 FILLER_100_3
*1438 FILLER_100_303
*1439 FILLER_100_307
*1440 FILLER_100_309
*1441 FILLER_100_314
*1442 FILLER_100_321
*1443 FILLER_100_325
*1444 FILLER_100_329
*1445 FILLER_100_341
*1446 FILLER_100_343
*1447 FILLER_100_346
*1448 FILLER_100_358
*1449 FILLER_100_362
*1450 FILLER_100_365
*1451 FILLER_100_377
*1452 FILLER_100_389
*1453 FILLER_100_401
*1454 FILLER_100_41
*1455 FILLER_100_413
*1456 FILLER_100_417
*1457 FILLER_100_419
*1458 FILLER_100_421
*1459 FILLER_100_433
*1460 FILLER_100_445
*1461 FILLER_100_457
*1462 FILLER_100_469
*1463 FILLER_100_472
*1464 FILLER_100_477
*1465 FILLER_100_480
*1466 FILLER_100_482
*1467 FILLER_100_490
*1468 FILLER_100_494
*1469 FILLER_100_498
*1470 FILLER_100_510
*1471 FILLER_100_522
*1472 FILLER_100_53
*1473 FILLER_100_530
*1474 FILLER_100_533
*1475 FILLER_100_536
*1476 FILLER_100_544
*1477 FILLER_100_547
*1478 FILLER_100_555
*1479 FILLER_100_559
*1480 FILLER_100_571
*1481 FILLER_100_579
*1482 FILLER_100_581
*1483 FILLER_100_584
*1484 FILLER_100_589
*1485 FILLER_100_592
*1486 FILLER_100_594
*1487 FILLER_100_597
*1488 FILLER_100_602
*1489 FILLER_100_607
*1490 FILLER_100_61
*1491 FILLER_100_612
*1492 FILLER_100_617
*1493 FILLER_100_623
*1494 FILLER_100_63
*1495 FILLER_100_66
*1496 FILLER_100_7
*1497 FILLER_100_70
*1498 FILLER_100_73
*1499 FILLER_100_77
*1500 FILLER_100_81
*1501 FILLER_100_83
*1502 FILLER_100_85
*1503 FILLER_100_97
*1504 FILLER_101_104
*1505 FILLER_101_111
*1506 FILLER_101_113
*1507 FILLER_101_118
*1508 FILLER_101_125
*1509 FILLER_101_13
*1510 FILLER_101_132
*1511 FILLER_101_139
*1512 FILLER_101_141
*1513 FILLER_101_146
*1514 FILLER_101_153
*1515 FILLER_101_160
*1516 FILLER_101_167
*1517 FILLER_101_169
*1518 FILLER_101_174
*1519 FILLER_101_181
*1520 FILLER_101_188
*1521 FILLER_101_195
*1522 FILLER_101_197
*1523 FILLER_101_20
*1524 FILLER_101_202
*1525 FILLER_101_209
*1526 FILLER_101_216
*1527 FILLER_101_223
*1528 FILLER_101_225
*1529 FILLER_101_230
*1530 FILLER_101_237
*1531 FILLER_101_244
*1532 FILLER_101_253
*1533 FILLER_101_258
*1534 FILLER_101_265
*1535 FILLER_101_27
*1536 FILLER_101_273
*1537 FILLER_101_275
*1538 FILLER_101_279
*1539 FILLER_101_281
*1540 FILLER_101_286
*1541 FILLER_101_29
*1542 FILLER_101_294
*1543 FILLER_101_296
*1544 FILLER_101_3
*1545 FILLER_101_300
*1546 FILLER_101_304
*1547 FILLER_101_307
*1548 FILLER_101_309
*1549 FILLER_101_320
*1550 FILLER_101_324
*1551 FILLER_101_328
*1552 FILLER_101_335
*1553 FILLER_101_337
*1554 FILLER_101_34
*1555 FILLER_101_342
*1556 FILLER_101_349
*1557 FILLER_101_356
*1558 FILLER_101_363
*1559 FILLER_101_365
*1560 FILLER_101_370
*1561 FILLER_101_377
*1562 FILLER_101_384
*1563 FILLER_101_391
*1564 FILLER_101_393
*1565 FILLER_101_398
*1566 FILLER_101_405
*1567 FILLER_101_41
*1568 FILLER_101_412
*1569 FILLER_101_419
*1570 FILLER_101_421
*1571 FILLER_101_426
*1572 FILLER_101_433
*1573 FILLER_101_440
*1574 FILLER_101_447
*1575 FILLER_101_449
*1576 FILLER_101_454
*1577 FILLER_101_461
*1578 FILLER_101_468
*1579 FILLER_101_475
*1580 FILLER_101_477
*1581 FILLER_101_48
*1582 FILLER_101_482
*1583 FILLER_101_490
*1584 FILLER_101_492
*1585 FILLER_101_496
*1586 FILLER_101_505
*1587 FILLER_101_510
*1588 FILLER_101_515
*1589 FILLER_101_520
*1590 FILLER_101_525
*1591 FILLER_101_527
*1592 FILLER_101_531
*1593 FILLER_101_533
*1594 FILLER_101_545
*1595 FILLER_101_55
*1596 FILLER_101_550
*1597 FILLER_101_555
*1598 FILLER_101_559
*1599 FILLER_101_561
*1600 FILLER_101_567
*1601 FILLER_101_569
*1602 FILLER_101_57
*1603 FILLER_101_573
*1604 FILLER_101_580
*1605 FILLER_101_587
*1606 FILLER_101_589
*1607 FILLER_101_595
*1608 FILLER_101_597
*1609 FILLER_101_602
*1610 FILLER_101_604
*1611 FILLER_101_608
*1612 FILLER_101_610
*1613 FILLER_101_615
*1614 FILLER_101_617
*1615 FILLER_101_62
*1616 FILLER_101_622
*1617 FILLER_101_624
*1618 FILLER_101_69
*1619 FILLER_101_7
*1620 FILLER_101_76
*1621 FILLER_101_83
*1622 FILLER_101_85
*1623 FILLER_101_9
*1624 FILLER_101_90
*1625 FILLER_101_97
*1626 FILLER_10_109
*1627 FILLER_10_121
*1628 FILLER_10_133
*1629 FILLER_10_137
*1630 FILLER_10_139
*1631 FILLER_10_141
*1632 FILLER_10_15
*1633 FILLER_10_153
*1634 FILLER_10_165
*1635 FILLER_10_177
*1636 FILLER_10_189
*1637 FILLER_10_193
*1638 FILLER_10_195
*1639 FILLER_10_197
*1640 FILLER_10_209
*1641 FILLER_10_221
*1642 FILLER_10_233
*1643 FILLER_10_245
*1644 FILLER_10_249
*1645 FILLER_10_251
*1646 FILLER_10_253
*1647 FILLER_10_265
*1648 FILLER_10_27
*1649 FILLER_10_277
*1650 FILLER_10_289
*1651 FILLER_10_29
*1652 FILLER_10_3
*1653 FILLER_10_301
*1654 FILLER_10_305
*1655 FILLER_10_307
*1656 FILLER_10_309
*1657 FILLER_10_321
*1658 FILLER_10_333
*1659 FILLER_10_345
*1660 FILLER_10_357
*1661 FILLER_10_361
*1662 FILLER_10_363
*1663 FILLER_10_365
*1664 FILLER_10_377
*1665 FILLER_10_389
*1666 FILLER_10_401
*1667 FILLER_10_41
*1668 FILLER_10_413
*1669 FILLER_10_417
*1670 FILLER_10_419